     152
CELL:    18.246041     0.158200     0.243207     0.042583    13.078127    -0.004987    -0.141220     0.003841    10.650353
Al  15.480552543 -5.096282203  5.609613558
Al  15.492152784 -1.826287479  5.606173335
Al  6.439271309 -1.902511679  0.159374652
Al  6.428455614 -5.172194970  0.165074283
 O  16.942592056 -4.559825002  6.693392026
 O  15.498441398 -3.462199852  4.696793746
 O  15.487265998 -0.189090687  6.514018462
 O  23.191576220 -4.422267180  9.849992688
 O  14.112294892 -4.504808292  6.786656810
 O  7.781514737 -4.631275527  9.778505674
 O  14.006704965 -2.363645012  6.657156449
 O  14.146282491 -1.239599663  4.400550680
 O  7.900626187 -1.366022262  1.242587216
 O  16.835756822 -2.414005259  6.813273845
 O  16.980667348 -1.289258150  4.557901092
 O  23.312425572 -1.149175238  1.574599453
 O  7.675219769 -2.491996201  9.642831120
 O  14.040004696  0.904381444  4.517595883
 O  7.791408821  0.777128143  1.363146464
 O  23.204239243  0.990791976  1.438212381
 O  16.870652529  0.851663800  4.424063925
 O  23.081657322 -2.277194734  9.970100175
 O  6.316621098 -0.265378209  9.895228675
 O  24.664665243 -3.377547742  1.317277735
 C  20.569182038 -2.248792396  8.713148367
 C  21.276589490 -3.389985915  8.959142021
 C  20.694619683 -4.560214106  8.569198914
 C  19.455803291 -4.587846210  7.951914080
 C  18.748447183 -3.446815604  7.705827626
 C  19.330435892 -2.276464636  8.095832074
 C  17.417441754 -3.475622468  7.025715945
 C  22.607780989 -3.361415710  9.638563828
 C  13.524172613 -3.445096311  6.980843590
 C  12.176123370 -3.471490377  7.626736814
 C  11.463330017 -2.332361637  7.849050826
 C  10.208574683 -2.357939063  8.433195015
 C  9.615334207 -3.524007000  8.812967320
 C  10.328567775 -4.662950436  8.591726125
 C  11.583234164 -4.637537592  8.007249299
 C  8.265603889 -3.550540498  9.455190068
 C  13.564412133 -0.178866983  4.187048599
 C  12.233559532 -0.205488560  3.507124725
 C  11.528564405  0.935466754  3.261612591
 C  10.290022819  0.910216424  2.644356842
 C  9.705968149 -0.257361899  2.253649842
 C  10.411020142 -1.398493276  2.499007687
 C  11.649556299 -1.373337037  3.116454421
 C  8.374943026 -0.283139511  1.574244348
 C  17.461406458 -0.207439366  4.233032814
 C  18.810735118 -0.178475148  3.589869356
 C  19.527209324 -1.316083812  3.370862141
 C  20.782693601 -1.287723008  2.788222631
 C  21.372954479 -0.120273248  2.406880249
 C  20.656514382  1.017238727  2.625748110
 C  19.401031034  0.988977228  3.208687170
 C  22.722434199 -0.090925317  1.764124548
 H  21.312336479 -2.169382291  2.625773330
 H  19.096787886 -2.218833254  3.661947573
 H  20.993495911 -1.343568480  9.009962117
 H  18.807522756 -1.392007631  7.912929869
 H  15.514781793 -3.463060839  3.867473780
 H  15.477549812 -0.187567862  7.343336029
 H  6.326679305 -0.266260172  9.065999317
 H  24.650225689 -3.375783627  2.146653128
 H  12.170693593 -2.257603608  3.298834086
 H  9.985115826 -2.301707257  2.201488573
 H  9.681557130 -1.475150123  8.597401370
 H  11.895763089 -1.430529684  7.558832735
 H  9.768907374  1.794463407  2.462032308
 H  11.954464683  1.838712172  3.559068227
 H  12.109945737 -5.520501661  7.842291349
 H  9.895965766 -5.564912693  8.881581061
 H  19.031577633 -5.492910027  7.654788474
 H  21.217574157 -5.444669207  8.751945368
 H  18.871407290  1.870768944  3.371200897
 H  21.086929603  1.920081879  2.334556052
Al  15.501895826  1.443469944  5.598710627
Al  15.511606002  4.712612725  5.597319103
Al  6.461456801  4.636147004  0.154037071
Al  6.450335475  1.366874598  0.154516406
 O  16.969391672  1.982268987  6.674299029
 O  15.515201557  3.077584741  4.685834950
 O  15.506792278  6.345298793  6.512827578
 O  23.217408812  2.119161528  9.836163444
 O  14.128819721  2.034732364  6.770898227
 O  7.798665160  1.907404834  9.761025737
 O  14.022622736  4.175921163  6.640978759
 O  14.169896999  5.306730905  4.392599291
 O  7.919640805  5.173767127  1.242839251
 O  16.859887181  4.121979921  6.796884417
 O  16.996288960  5.250120945  4.549264538
 O  23.327845134  5.381949651  1.563197219
 O  7.695601857  4.049605607  9.634786859
 O  14.057037803  7.448301927  4.525389589
 O  7.806074991  7.315225550  1.373881461
 O  23.225592782  7.524597658  1.444140117
 O  16.895312814  7.392123002  4.430465411
 O  23.109136119  4.260421598  9.956277175
 O  6.339355854  6.276390153  9.895708932
 O  24.690121738  3.159895493  1.309133789
 C  20.597821041  4.287626485  8.692703789
 C  21.305226671  3.150000544  8.939177983
 C  20.723735032  1.983124829  8.547080892
 C  19.485349494  1.955330815  7.928762093
 C  18.777319024  3.092796320  7.683528468
 C  19.359373652  4.259760631  8.074536380
 C  17.445124139  3.063843086  7.005125695
 C  22.635294394  3.178588370  9.621912833
 C  13.539495646  3.093847729  6.963135722
 C  12.190577085  3.067328558  7.607057777
 C  11.478631179  4.207190374  7.830693673
 C  10.224316493  4.181795615  8.415775521
 C  9.630679255  3.015089306  8.794162445
 C  10.342266484  1.874891184  8.569924867
 C  11.596697259  1.900290898  7.985249472
 C  8.282526288  2.989039007  9.439403583
 C  13.584237183  6.366161259  4.187891057
 C  12.252176850  6.338460460  3.509968644
 C  11.541831963  7.477568852  3.272552206
 C  10.302495321  7.450640951  2.656690022
 C  9.722878295  6.283186598  2.259467538
 C  10.433140734  5.144120083  2.497121594
 C  11.672406755  5.170980915  3.112962898
 C  8.391573969  6.255668053  1.580475243
 C  17.481266963  6.332366169  4.231456363
 C  18.829976727  6.359633409  3.587383966
 C  19.540871352  5.219625549  3.359931226
 C  20.795969953  5.246089269  2.776481008
 C  21.391109000  6.414047359  2.403211711
 C  20.680085857  7.553852841  2.630663470
 C  19.425048052  7.527401616  3.214005797
 C  22.740592509  6.441788921  1.760562610
 H  21.321620457  4.362595872  2.607444184
 H  19.106519954  4.316328703  3.644801936
 H  21.021450377  5.190107134  8.990936967
 H  18.836264153  5.141457630  7.892317273
 H  15.522275901  3.077170295  3.855854495
 H  15.494668324  6.343916302  7.342425697
 H  6.345762317  6.277877068  9.065859484
 H  24.681842837  3.160193776  2.138503094
 H  12.197573513  4.288086247  3.289164021
 H  10.010896628  4.241234722  2.194353530
 H  9.698262826  5.065306964  8.582278929
 H  11.911815600  5.109831904  7.541935182
 H  9.777429458  8.333622673  2.480288569
 H  11.964211469  8.380532996  3.575294693
 H  12.122925169  1.016769926  7.819116693
 H  9.909006327  0.972415377  8.858688846
 H  19.061524734  1.052734139  7.630975929
 H  21.246664410  1.101386699  8.729626424
 H  18.899646871  8.410754344  3.383521259
 H  21.114533095  8.457056598  2.346042421
