  171
scf done: -5508.831369
 C    -6.999177     3.137250    -4.618059
 H     1.255326    -5.839563    -2.664791
 H     2.195531     4.459337     3.727776
 H     6.865740    -4.894316     2.578946
 O    -3.170808     0.384224    -2.959100
 C    -3.910728    -2.257562    -0.318670
 O    -0.860947    -0.724130     3.567656
 H    -5.255330    -3.258161     1.801160
 H     1.992159     0.877452     5.756102
 O     0.744998     1.678514    -0.296971
 O    -3.062895     2.283498     1.039014
 C     0.121398    -0.171138     4.145618
 H     3.400117    -0.229806    -0.449450
 H    -6.726261     4.869290    -3.370714
 C     5.142152    -1.123672    -4.660563
 H     2.008110     0.890028     8.253384
 C    -3.579138     1.507636     1.895906
 H     4.571527    -3.827805    -2.692692
 O     3.198920    -0.504672     2.140861
 C     5.448831    -1.406762     3.490743
 O    -3.165277     0.338961     2.176618
 O    -3.373172    -2.028004     0.810470
 C    -4.751848     2.006748     2.684791
 C    -0.609856     6.173672    -3.046963
 C     0.463269     5.130612     2.663547
 O     1.110883     2.977631    -2.982516
 C     0.618527    -6.256394     2.227720
 O     3.367711     2.038158     0.781384
 H    -6.658393     4.784921     3.134493
 C     3.810304     2.407280    -0.351569
 O     3.269925     2.145534    -1.464905
 C     7.525977     4.534645    -0.422702
 H    -5.382059    -2.953217    -2.459096
 H    -4.764919     3.937353     1.757153
 C     6.594954    -1.877466     4.120950
 H    -1.926732    -4.598254     3.745751
 C    -6.876660     2.947053     4.234414
 C     6.467675    -3.918423     2.832976
 C     0.291890     5.163001    -3.396067
 C    -1.371767    -6.645056     4.148628
 C    -4.742220     2.111189    -3.359792
 C     1.286227     6.618604    -5.044123
 H     1.930026     4.594913    -4.654082
 O    -0.691287     1.154875     1.658887
 C     6.194836    -3.648601    -4.099614
 C    -6.348956     3.890025    -3.642589
 H    -2.141800    -6.804528     4.894734
 H    -2.105497    -4.289239    -4.804655
 H     1.001991    -8.027269    -3.825307
 C     1.197610     0.409714     6.322065
 O     0.556969    -0.911617     1.043857
 C     0.154999    -0.192951     8.402629
 C     1.200025     0.413674     7.710185
 C    -6.519348     1.878437    -4.975357
 C     5.058143    -3.209863    -3.434960
 H    -4.967361     0.173203     3.769603
 C     4.808899    -2.189351     2.523879
 C     0.633425     7.435873     4.220220
 C    -7.541384    -4.541031    -0.366008
 C     3.362065    -1.458965    -2.910560
 H     5.336789     3.115212     1.756921
 H    -1.331595     5.980254    -2.264823
 H    -5.007373     0.383915    -4.598595
 O     2.887363    -0.303123    -3.172235
 O     0.716751    -3.797413     0.943545
 C    -0.495901    -7.675889     3.817412
 C     1.238064     5.387366    -4.400200
 C     5.633472     3.601002    -1.588150
 C    -0.708510    -7.385794    -4.962651
 C    -6.993641    -4.073360    -1.560126
 H     1.379629    -6.080182     1.479176
 C    -5.824006    -3.321307    -1.542463
 O     3.069590    -2.397829     0.930995
 H     7.267228     4.602825    -2.558402
 C     0.350219     3.863446     1.875731
Zr     1.570351     0.875365     1.442772
Zr    -1.289775     2.132675    -0.392433
 H    -7.348626    -4.606247     1.777053
 C    -6.921455    -4.245978     0.847949
 O     2.442180    -0.172233    -0.411304
 C     0.261094     3.867621    -2.658832
 C     6.985493     4.123690     0.794946
 H     6.765390    -0.926866    -6.055026
 C    -6.406773     1.646344     4.411292
 C    -0.379383     7.311403     3.269889
 C    -0.888992    -0.812664     7.720296
 H     6.606744    -4.627695    -3.883046
 H    -1.381050    -3.111016    -0.429897
 H     5.037870    -0.434921     3.730286
 C    -5.391300     1.363874    -4.346713
 O     0.550045    -0.920819    -1.906329
 C     0.501589    -7.485088     2.864127
 C     0.147266    -0.202565     5.632330
 H     4.723814    -0.145273    -4.859232
 C     7.107102    -3.131026     3.789633
Zr    -1.501691    -0.966429     1.453705
 C     0.323286    -7.210384    -4.042722
 H    -2.378324    -6.474281    -5.970192
 H    -1.247250     6.042492     1.752728
 H    -1.695041    -1.283485     8.271291
 H    -7.477323    -4.298456    -2.503977
 C    -1.579177    -6.335507    -5.251004
 O    -0.983403    -2.237391    -0.397298
 C    -0.894068    -0.818719     6.332204
 C     0.471922    -5.991941    -3.394660
 O     0.593029    -3.659807    -1.975117
 C     0.391479     7.625219    -4.685043
 O    -0.588365     3.756794    -1.729779
 C    -0.176299    -3.917941     1.835638
Zr    -1.534057    -0.800007    -2.063273
 H     5.092300     3.387178    -2.500488
 O    -0.582160     3.770724     1.024775
 C     6.813270    -2.822280    -5.035608
 H     7.513460     4.327532     1.719671
 C    -5.751817    -3.492884     0.868614
 C     5.770927     3.447204     0.822930
Zr     1.310764    -2.158908    -0.455188
 C    -0.464892     6.161806     2.491088
 C    -1.430657    -5.111760    -4.605134
 C     3.599047    -1.663478     1.819583
 H    -7.029091     1.298593    -5.736408
 H     2.358375     6.517190     5.121280
 O    -0.681816     1.111056    -2.354943
 O    -3.429462    -1.911739    -1.436299
 H     1.179872    -8.293954     2.617644
 O     2.957678    -2.227525    -1.990696
 C    -0.284383    -3.670108    -2.886469
 C    -0.409927    -4.939027    -3.665640
 O     1.071120     0.428291     3.558722
 O    -1.088882    -2.714754    -3.151067
 C     1.568825     6.416059     4.385204
 C     6.283413    -1.565051    -5.323227
 O     1.191105     2.951948     2.153705
 H    -0.982552     1.640057     2.434777
 C     5.320976    -3.450074     2.200868
 O    -3.064534     2.259396    -1.718775
 C    -5.348629     1.177471     3.641080
 C     5.092425     3.177583    -0.369810
 C     4.531251    -1.941485    -3.705470
 C    -0.559596     7.402410    -3.691612
 H    -1.693783    -1.286914     5.773946
 H    -1.103743     8.107694     3.140973
 O    -1.020827    -3.028907     2.152839
 C    -5.222152     3.378348    -3.013054
 C    -5.233724     3.306745     2.501574
 C    -3.566082     1.550010    -2.636198
 C     6.847269     4.278145    -1.613096
 H    -1.253940     8.188695    -3.417962
 H     4.812491    -4.044113     1.452758
 C    -6.291969     3.774290     3.275408
Zr     1.407197     0.981427    -2.076095
 O    -1.839473     0.123093    -0.288149
 C    -5.193563    -3.030893    -0.327756
 C    -1.257223    -5.415817     3.514220
 C    -0.265241    -5.222208     2.548352
 H    -4.706716     3.938018    -2.244163
 H    -6.863072     1.000608     5.153146
 H     7.091851    -1.267904     4.867176
 C     1.484415     5.265987     3.610378
 H     2.022983     6.797619    -5.818982
 H    -0.832130    -8.348228    -5.441319
 H     8.005979    -3.491150     4.275053
 H     0.695526     8.322349     4.838634
 H    -7.885324     3.533109    -5.092020
 H     7.714065    -3.163261    -5.527668
 H    -7.693832     3.311862     4.848272
 H    -0.595837    -8.632561     4.301615
 H     0.435990     8.588775    -5.171700
 H     0.151767    -0.178638     9.478924
 H     8.477479     5.051124    -0.445347
 H    -8.447825    -5.136972    -0.383355
