  186
scf done: -5929.848570
Zr     1.944651     0.337491    -1.572044
Zr    -1.944725    -0.337014     1.570792
Zr    -1.441180     1.458347    -1.471081
Zr    -0.711216    -2.030623    -1.316556
Zr     0.711206     2.032134     1.315578
Zr     1.441309    -1.456475     1.470537
 O    -0.679767    -2.141165     0.965758
 O    -0.497671     2.375713    -3.285458
 O    -3.344380    -2.038958     1.157645
 O    -2.182540    -1.738871    -2.981845
 O    -2.643672     0.461843    -3.079255
 O     2.553927    -0.475651     3.151275
 O     2.093545     1.725122     3.053780
 O     0.552646    -2.644283    -3.063468
 O     2.228424    -1.150776    -3.224779
 O     2.293437     0.510847     0.680050
 O     0.530327    -2.280798     3.345772
 O     2.500125     3.174944     0.595184
 O     3.277687     2.105506    -1.226022
 O    -1.497299     1.765036     0.792641
 O    -2.161534     1.083425     3.290488
 O     0.498745     1.571553    -0.709145
 O    -2.566647    -3.106871    -0.664279
 O     0.169471    -4.010857    -0.745383
 O    -3.900855     0.619609     1.038846
 O    -1.682792    -0.373577    -0.499693
 O     1.098568    -1.293577    -0.582257
 O    -1.605659    -1.574733     3.408972
 O    -0.486242     2.577702     3.130120
 O    -0.116364    -0.131909    -2.440221
 O     1.637985     1.668585    -3.348972
 O     3.550779    -1.844472     0.818335
 O    -1.437451     3.667156    -1.085757
 O    -0.079858     4.028795     0.672399
 O    -3.582992     1.752736    -0.879470
 O     0.085199     0.097881     1.789227
 O     1.527108    -3.648515     1.012667
 O     3.868384    -0.712503    -1.100724
 C     2.152264    -2.929157    -4.776571
 C     1.609810    -2.192492    -3.596940
 C     1.497382    -4.070714    -5.248992
 C     3.126237    -4.265768    -7.012488
 C     3.787112    -3.133310    -6.540284
 C     3.301748    -2.464537    -5.423062
 C     1.985028    -4.737354    -6.366433
 C    -7.546349     3.031446    -0.879769
 C    -6.569549     1.376396     1.144177
 C    -5.484021    -3.794016     1.378796
 C    -4.402439     0.087049    -5.193979
 C     4.519553     2.464415     6.357779
 C    -5.247216    -0.139632    -6.273685
 C     3.686076     2.243706     5.268035
 C    -3.723046    -0.982815    -4.603299
 C     5.185576     1.393051     6.950027
 C    -2.788178    -0.736373    -3.466121
 C    -4.746137    -2.503994    -6.172892
 C     4.182108    -0.124663     5.371855
 C    -3.900853    -2.280401    -5.092965
 C     5.014942     0.099106     6.461442
 C    -5.414486    -1.433406    -6.763808
 C     3.518536     0.948342     4.768930
 C     2.651799     0.714362     3.576283
 C    -0.809984    -2.913038     5.184025
 C     5.523455     6.025790     0.314265
 C     8.292265    -2.874515    -0.323754
 C     2.134745     3.103116    -5.672235
 C     0.990484    -4.395068     0.140339
 C     0.661011     2.339672    -3.797756
 C    -2.055671    -2.878055     5.818208
 C    -5.731663     1.776974     0.098898
 C     2.206422    -6.335551     1.152023
 C    -0.815509     8.124981     0.505643
 C    -0.163295     3.865360    -5.603907
 C     6.456800     5.909535    -0.714042
 C     0.242733    -3.638848     5.749811
 C    -1.198801    -4.301491     7.561936
 C     1.906558    -8.565334     0.293186
 C    -1.126821     5.886559    -0.341651
 C     1.037874    -8.083083    -0.683940
 C    -1.992561     6.376937    -1.324104
 C    -7.890328     1.806824     1.177711
 C     0.748217    -6.725382    -0.742400
 C    -2.271040     7.736905    -1.386809
 C     6.357173     4.876722    -1.644305
 C    -3.615333     2.953538     6.715164
 C    -4.303196     1.344344     0.080116
 C    -2.954166     4.084810     7.189577
 C     6.490338    -1.603840    -1.292938
 C     3.305347     3.044016    -0.374724
 C     2.494114    -7.693757     1.208105
 C    -0.535050     6.765534     0.570709
 C    -4.542435    -3.907140     0.351280
 C    -8.375339     2.636488     0.168493
 C    -5.690323    -5.856306    -0.490299
 C    -3.406485    -2.941952     0.270485
 C     0.884407     3.125808    -5.046723
 C     6.146646    -2.826576     0.769351
 C    -6.522105    -4.713033     1.472283
 C    -0.611405    -2.196678     3.889535
 C    -4.651069    -4.938860    -0.586232
 C    -6.621447    -5.744651     0.540586
 C    -2.248521    -3.572515     7.006242
 C     0.037038     4.570148    -6.784567
 C    -3.139323     2.296663     5.587054
 C     5.657511    -1.989121    -0.237909
 C    -1.334669     3.903231     5.416402
 C     7.463456    -3.268081     0.725191
 C    -1.812953     4.557967     6.544796
 C     2.332098     3.808864    -6.852791
 C    -0.854640     4.421548    -0.250547
 C    -6.225200     2.602428    -0.916089
 C     5.325803     3.951203    -1.542242
 C    -1.508113     2.089597     3.699096
 C     4.253746    -1.485648    -0.173307
 C     0.046908    -4.332342     6.937930
 C     4.490956     5.101755     0.418850
 C     1.282479     4.537562    -7.408956
 C     7.806755    -2.046803    -1.334347
 C     4.392135     4.058572    -0.506937
 C     1.328549    -5.848239     0.178930
 C    -1.685755     8.607994    -0.469833
 C    -1.999716     2.772853     4.931619
 H     0.611638    -4.415563    -4.731969
 H     4.676272    -2.773160    -7.045240
 H     3.795337    -1.581473    -5.039187
 H     1.477152    -5.620709    -6.736625
 H     5.484530    -3.115514     1.574886
 H     7.846154    -3.914744     1.506637
 H     2.932791     2.527345    -5.222385
 H     1.199508    -3.649995     5.244610
 H    -3.913977    -5.006338    -1.375495
 H    -4.253429     1.082594    -4.797185
 H     4.653839     3.468265     6.744488
 H    -5.772618     0.688467    -6.735735
 H     3.160714     3.059392     4.789045
 H    -4.883041    -3.508528    -6.556890
 H     4.035950    -1.119467     4.972154
 H    -3.368359    -3.094409    -4.619055
 H     5.533271    -0.730649     6.928489
 H     0.860476    -4.898671     7.376868
 H     0.586742    -8.766111    -1.394735
 H    -2.437049     5.680305    -2.022604
 H    -5.774813    -6.659058    -1.213998
 H    -2.855852    -2.307627     5.365336
 H    -1.121749     3.872254    -5.101827
 H    -7.930555     3.674418    -1.663516
 H    -0.946986    -2.982027     1.345062
 H     5.604634     6.833489     1.032816
 H     3.755946     5.168557     1.210111
 H    -1.301402     5.436667     6.920941
 H    -8.541207     1.500408     1.988729
 H    -0.774487     5.141590    -7.220645
 H     5.228829     3.138500    -2.249952
 H    -4.500761     2.588722     7.223304
 H     3.171547    -8.075052     1.963736
 H     0.134627     6.366031     1.320844
 H     6.090950    -0.958030    -2.063775
 H     2.647001    -5.638938     1.852997
 H    -0.360746     8.807963     1.214176
 H     8.455594    -1.746679    -2.149346
 H    -3.214328    -3.549820     7.498170
 H     3.299482     3.790211    -7.341772
 H    -3.636630     1.418360     5.197155
 H    -6.168558     0.734590     1.917522
 H     7.084537     4.793769    -2.443894
 H    -7.251327    -4.629553     2.270128
 H    -5.561003     2.897867    -1.717540
 H    -0.452660     4.252818     4.896187
 H    -2.085111     2.457810     1.103883
 H    -5.383571    -2.986385     2.091825
 H     0.074441    -6.326812    -1.489339
 H    -2.944614     8.119046    -2.145467
 H    -0.162070    -0.184397    -3.398082
 H     3.193943     0.710999     0.947197
 H     5.840768     1.567059     7.791536
 H    -6.064219    -1.607225    -7.609372
 H     2.123567    -9.622397     0.343751
 H    -1.910462     9.664145    -0.513581
 H     9.318755    -3.210824    -0.352044
 H    -9.399908     2.978126     0.200475
 H    -1.352627    -4.848703     8.480905
 H     1.434526     5.078344    -8.331864
 H     3.499267    -4.779902    -7.886726
 H    -3.330575     4.600249     8.061247
 H    -7.423793    -6.464212     0.619758
 H     7.264816     6.622889    -0.788795
