  156
scf done: -5087.821327
Zr     1.638434     0.150910    -1.905729
Zr    -0.030571    -2.577250     0.103345
Zr    -1.717549    -0.110188     1.593155
Zr    -1.636458     0.190148    -1.904515
Zr     1.715371    -0.150637     1.592221
Zr     0.031181     2.615042     0.226420
 O     1.404983     3.679817    -1.243543
 O     2.038343     1.441808     0.051913
 O    -1.368743    -3.389335    -1.473694
 O    -2.341514    -1.758971    -2.676839
 O     2.397365     1.612836     2.794843
 O     1.455332     3.394742     1.775260
 O    -2.355118     1.668139     2.797041
 O    -1.372421     3.427594     1.776713
 O     0.013873     1.220554    -1.198602
 O     3.855504    -0.306652     0.890009
 O     0.013172     1.060772     1.593669
 O     3.850504    -0.013044    -1.342452
 O    -3.861954    -0.214559     0.892890
 O     2.185278     2.123053    -2.681716
 O     2.501698    -1.985079     2.561246
 O    -1.561459    -3.547226     1.363482
 O     2.296277    -1.814860    -2.678406
 O    -3.851691     0.078988    -1.339517
 O    -0.005820    -0.365775    -2.985126
 O     1.477764    -3.583155     1.363485
 O     1.287763    -3.421498    -1.472821
 O    -0.015686    -1.359356     1.914972
 O    -1.380085    -1.015451    -0.221644
 O    -2.003710     1.489779     0.053496
 O    -1.318589     3.712275    -1.241842
 O    -2.136955     2.174962    -2.679750
 O    -2.546924    -1.925772     2.562100
 O     1.355065    -1.047766    -0.222321
 C    -2.939476    -3.978170    -3.152233
 C     4.469175     5.589393     5.042457
 C    -2.157415    -2.970482    -2.376720
 C    -2.810938    -5.344652    -2.890327
 C     4.649493     4.216767     5.207378
 C    -4.436203    -5.817405    -4.606445
 C     2.971483     3.802446     3.522020
 C    -4.564238    -4.456225    -4.873202
 C     2.785116     5.181548     3.371968
 C     2.209999     2.865881     2.644156
 C    -3.817791    -3.537825    -4.147912
 C     3.531872     6.071789     4.131284
 C    -3.560410    -6.263114    -3.617840
 C     3.901419     3.322108     4.449025
 C    -4.317549     5.690589     5.059063
 C    -4.532045     4.322703     5.222033
 C    -2.871490     3.869954     3.529550
 C    -2.650803     5.244150     3.381389
 C    -2.137048     2.916331     2.647389
 C    -3.371926     6.151307     4.145343
 C    -3.809710     3.411101     4.459044
 C     6.627200    -0.101279    -1.441522
 C     8.013190    -0.501734     0.947316
 C     3.522682     6.665014    -3.238645
 C    -3.991975    -3.793272     4.049977
 C     2.798005    -5.599552     2.744826
 C    -4.215899     5.086579    -4.775821
 C     2.992959    -4.248505     3.050938
 C    -4.157155     6.404449    -4.328789
 C    -5.932777    -0.128146    -0.238831
 C     3.512302    -6.577302     3.426805
 C    -3.500443     4.100605    -4.109480
 C    -2.339432    -3.145412     2.282786
 C     2.072630     3.320801    -2.254093
 C     8.706704    -0.323770    -0.248140
 C    -3.091115    -4.177213     3.051183
 C    -1.996584     3.369417    -2.251112
 C     6.623896    -0.473889     0.951285
 C    -2.927286    -5.532329     2.744831
 C     2.684706    -5.410527    -2.886937
 C     2.842933    -4.047780    -3.152071
 C    -8.019535     0.060519    -1.436989
 C     4.292131     6.305011    -4.343120
 C     5.926776    -0.268455    -0.243163
 C     3.586904     4.016176    -4.117685
 C     2.084948    -3.021565    -2.376981
 C     4.614417    -4.865817     4.731053
 C    -2.658474     5.762084    -2.558900
 C    -8.023442    -0.313314     0.952901
 C     2.785481     5.698021    -2.567546
 C     4.321333     4.985405    -4.787913
 C     2.821508     4.369412    -3.001799
 C     4.423497    -6.210576     4.415929
 C    -2.724355     4.435306    -2.995268
 C     3.412454    -6.346883    -3.613658
 C    -4.438849    -0.093425    -0.233103
 C    -8.713574    -0.119448    -0.242073
 C     4.453582    -4.565334    -4.874856
 C     4.434201    -0.199070    -0.236427
 C    -6.633827    -0.317464     0.955998
 C     3.728911    -3.629085    -4.150279
 C     8.016406    -0.127895    -1.442682
 C    -3.664030    -6.493426     3.426532
 C    -4.726601    -4.757121     4.730912
 C     2.265276    -3.199602     2.282414
 C     3.902346    -3.885379     4.049814
 C    -3.376778     6.745871    -3.226079
 C    -6.630044     0.055149    -1.436696
 C    -4.566652    -6.105842     4.415529
 C     4.296088    -5.922768    -4.604770
 H    -2.124878    -5.667628    -2.118059
 H     5.377615     3.846232     5.919812
 H    -5.245650    -4.115211    -5.644369
 H     2.060794     5.533966     2.650230
 H    -3.901408    -2.476016    -4.335621
 H     3.391910     7.139861     4.009824
 H    -3.463708    -7.323895    -3.415896
 H     4.034442     2.253035     4.553548
 H    -5.266622     3.969309     5.936540
 H    -1.920491     5.579557     2.657593
 H    -3.205591     7.215785     4.025631
 H    -3.969193     2.345490     4.561815
 H    -8.569551    -0.457959     1.878233
 H    -6.074251    -0.463850     1.870511
 H     4.919214     4.715379    -5.650781
 H    -2.816747     1.995510     0.132386
 H     3.598579     2.983413    -4.439180
 H     5.322787    -4.583927     5.501703
 H    -2.049384     5.999290    -1.696632
 H     2.094720    -5.862813     1.965948
 H    -4.822019     4.830971    -5.637331
 H     6.067701     0.051583    -2.355016
 H    -4.110358    -2.740586     4.271188
 H    -5.428444    -4.459142     5.501478
 H     3.835615    -2.569787    -4.340480
 H     6.061603    -0.607339     1.866102
 H    -3.541515    -7.542830     3.184000
 H     1.993162    -5.716573    -2.112675
 H    -8.562452     0.207002    -2.363886
 H     3.365597    -7.623628     3.184384
 H    -3.535302     3.068898    -4.432681
 H    -6.067815     0.195116    -2.350582
 H     4.044972    -2.835687     4.270947
 H    -3.334554     7.774859    -2.887769
 H     3.292817    -7.404824    -3.409116
 H     8.556491    -0.658906     1.872255
 H    -2.230169    -5.811574     1.965984
 H     2.184199     5.949713    -1.703904
 H     8.562062     0.006046    -2.369865
 H     5.140939    -4.241135    -5.647996
 H     3.503550     7.695265    -2.902090
 H     2.863223     1.928184     0.129528
 H     4.989531    -6.973576     4.935252
 H    -5.023638    -6.524839    -5.173606
 H     5.061110     6.290684     5.614339
 H    -4.725962     7.165315    -4.839254
 H     9.786671    -0.335155    -0.248529
 H    -9.793654    -0.106017    -0.241806
 H     4.866811    -6.644307    -5.171207
 H    -4.889243     6.405246     5.634590
 H    -5.150165    -6.855674     4.934524
 H     4.875405     7.052609    -4.856806
