  156
scf done: -5087.821527
Zr    -0.004314     0.175325     2.039107
Zr     0.006846    -0.235109    -2.861708
Zr     0.192512    -2.460550    -0.298119
Zr    -2.483938    -0.149411    -0.620196
Zr     2.486299     0.055350    -0.625552
Zr    -0.192099     2.386457    -0.705329
 O    -1.306443     1.165267    -2.052764
 O     0.332082    -3.388287     1.763228
 O    -1.781620    -0.612020    -4.153482
 O    -3.369772    -2.271716    -0.471325
 O    -1.637008    -3.730205    -0.472317
 O     1.636970     3.608652    -1.081427
 O     3.371148     2.173552    -0.829819
 O    -3.583028    -0.005216     1.373189
 O    -2.003039     0.211926     2.969714
 O     1.314544     1.555353     0.738674
 O     3.577135     0.244704     1.369545
 O     1.990225     0.295799     2.972971
 O     1.314936    -1.479964    -1.824624
 O     1.803405    -0.086022    -4.190222
 O     1.099001    -0.900048     0.630083
 O    -3.422891    -0.443602    -2.612748
 O    -3.585484     1.772623    -0.734045
 O    -1.093699    -1.361939    -1.546669
 O    -1.100902     1.000802     0.464894
 O     3.436036     0.010101    -2.634419
 O    -1.318800    -1.401429     0.980490
 O     0.148460    -1.697815     3.234668
 O    -0.341194     3.643969     1.174286
 O     2.102450    -3.551856    -0.356570
 O     3.586717    -1.859148    -0.412642
 O     1.100368     1.095263    -1.747305
 O    -2.102370     3.452916    -0.952210
 O    -0.162237     2.219837     2.905303
 C    -4.244226     0.225690     3.642850
 C    -3.208152     0.147099     2.572070
 C    -5.599714     0.066921     3.343996
 C    -6.124608     0.286663     5.684761
 C    -4.776112     0.459821     5.984806
 C    -3.835827     0.427877     4.965608
 C    -6.539945     0.095523     4.368175
 C    -3.742127    -0.963730    -6.184546
 C    -3.404572    -5.899379    -0.398769
 C     6.137551     5.234920    -1.272935
 C    -4.319915    -6.943884    -0.313549
 C     5.227821     4.188757    -1.178551
 C    -3.854823    -4.577286    -0.472772
 C     5.680995     6.544997    -1.410549
 C    -2.884142    -3.437348    -0.490112
 C    -6.141351    -5.358632    -0.391207
 C     3.399608     5.760408    -1.375943
 C    -5.229269    -4.313584    -0.475387
 C     4.312556     6.806130    -1.469291
 C    -5.687966    -6.674052    -0.302314
 C     3.852968     4.446226    -1.222613
 C     2.884432     3.318361    -1.047205
 C     6.524191     0.620942     4.352795
 C    -0.555936     6.665379     5.143177
 C     0.313673    -3.448338     5.392925
 C    -3.286590     2.984919    -0.921490
 C     0.292062    -2.925579     2.939754
 C    -4.167617     5.310983    -1.223120
 C     6.788384    -4.471480    -0.328073
 C     0.557653    -5.259962     3.805931
 C     6.103218     0.663414     5.680812
 C    -6.539096     5.721077    -1.233593
 C     4.413695    -4.056770    -0.384039
 C    -6.790208     4.358627    -1.091573
 C     4.164594    -5.430110    -0.315547
 C    -5.728467     3.469116    -1.008877
 C     5.228243    -6.321417    -0.248783
 C     4.751694     0.559991     5.999182
 C     4.797673    -0.153578    -7.187927
 C     6.131570    -0.136459    -6.780387
 C    -0.324863     4.299522     4.744821
 C     3.197181     0.293629     2.575517
 C    -5.232611     6.199565    -1.305806
 C     5.727954    -3.579263    -0.395173
 C    -4.065614    -0.769583    -4.838741
 C    -6.416525    -0.917249    -5.383280
 C    -3.009967    -0.592586    -3.796061
 C     0.395878    -3.896148     4.070616
 C    -0.574474     5.826964     2.883478
 C    -4.755027    -1.135382    -7.124588
 C    -5.409014    -0.746632    -4.444476
 C    -6.090767    -1.113129    -6.723675
 C     0.630326    -6.168000     4.855732
 C     3.778186    -0.130427    -6.239485
 C    -0.409477     4.525081     3.367195
 C     5.434228    -0.072914    -4.477038
 C    -0.647951     6.894132     3.771124
 C     6.448285    -0.097405    -5.424089
 C     0.385544    -4.359005     6.440832
 C     3.286937    -3.085485    -0.399096
 C     3.814760     0.426027     4.985047
 C     3.030045    -0.055373    -3.827743
 C    -0.304213     3.382068     2.411094
 C     5.587203     0.483739     3.334312
 C     0.541081    -5.717999     6.172078
 C    -0.397178     5.368864     5.630036
 C     4.229026     0.392868     3.649109
 C    -4.414561     3.944096    -1.069582
 C     6.534998    -5.838535    -0.249089
 C     4.092712    -0.088772    -4.878231
 H    -5.895007    -0.084829     2.313733
 H    -4.462873     0.613466     7.011199
 H    -2.781647     0.552684     5.171221
 H    -7.592509    -0.034957     4.143933
 H    -0.641697     5.981421     1.814561
 H    -0.774641     7.903377     3.396115
 H     0.190852    -2.389536     5.579371
 H    -5.640912    -0.595239    -3.399287
 H    -2.339335    -6.090564    -0.396263
 H     7.201795     5.032343    -1.231722
 H    -3.967708    -7.967083    -0.247604
 H     5.562148     3.166737    -1.059548
 H    -7.205139    -5.149569    -0.386725
 H     2.333980     5.946644    -1.407572
 H    -5.561681    -3.285640    -0.532821
 H     3.958349     7.824808    -1.579544
 H    -7.810582     3.996558    -1.038151
 H     3.139647    -5.777008    -0.304500
 H    -7.455348    -0.899207    -5.073731
 H     0.622856    -5.586982     2.776514
 H     7.578838     0.698846     4.114335
 H     5.887382     0.452738     2.294782
 H     7.485415    -0.085525    -5.108597
 H     0.754375    -7.225227     4.650444
 H     2.758664     0.349673     5.204148
 H     4.552690    -0.184323    -8.243526
 H    -5.048168     7.261854    -1.418182
 H     5.893940    -2.511639    -0.444774
 H    -0.199579     3.285619     5.101397
 H    -3.143149     5.657143    -1.263750
 H     7.809269    -4.106932    -0.329269
 H    -0.327898     5.194457     6.697784
 H     0.318437    -4.012383     7.465844
 H     2.737834    -0.142570    -6.539096
 H     4.433438     0.588908     7.035088
 H    -4.503646    -1.287440    -8.168102
 H     5.659723    -0.041494    -3.420007
 H    -2.700192    -0.979830    -6.478363
 H    -5.893535     2.407319    -0.885638
 H     5.042703    -7.387753    -0.188847
 H    -1.875139    -1.949326     1.539808
 H     1.868902     2.188671     1.201426
 H    -6.887499    -1.248042    -7.444324
 H     6.933724    -0.152693    -7.508006
 H     6.820899     0.781590     6.477239
 H    -6.844458     0.297528     6.487452
 H    -0.605957     7.497798     5.833036
 H     0.590837    -6.427172     6.988124
 H    -6.403103    -7.483993    -0.216291
 H    -7.367789     6.408608    -1.279297
 H     7.362280    -6.525153    -0.179456
 H     6.393922     7.359320    -1.463491
