%chk=gaussian.chk
%nproc=20
%mem=90GB
#p opt b3lyp/gen int=grid=ultrafine pseudo=read scf=(tight,maxcycle=5000)

Title Card Required

0 1
 H     -3.421642    -2.068502    -0.655029
 H     -0.960099    -2.070310    -0.758378
 H     -3.393042     2.089685     0.346172
 H     -0.930596     2.080586     0.358772
 C     -2.866731    -1.162937    -0.445372
 C     -1.478983    -1.159594    -0.485535
 C     10.573459     2.320653     3.203352
 C     10.582013    -2.327660     3.192240
 C     12.901376     0.008448    -0.088933
 C      6.220342    -2.317711     3.207721
 C     10.724832    -2.188677    -3.166102
 C      8.404907     4.505258     0.110863
 C     10.715976     2.175065    -3.181333
 C      6.209393     2.330053     3.189862
 C      8.384088    -4.505402     0.114899
 C      6.074947    -2.177145    -3.179715
 C      6.070835     2.187135    -3.170887
 C      3.877037    -0.008090    -0.085532
 C      2.384966    -0.010251    -0.146416
 O      9.768329    -1.457198     3.599778
 O      9.855285    -1.374294    -3.574560
 O     12.347489    -1.121882    -0.049186
 O     10.889482     2.580718     2.012372
 O      7.274173     3.952386     0.071548
 O      5.904217    -2.580623     2.017386
 O      6.938535     1.369696    -3.576454
 O      7.025752     1.462362     3.597925
 O      4.465823     1.115868    -0.077754
 O      5.812106    -2.491358    -1.988676
 O      9.514570    -3.951400     0.076057
 O     10.976207     2.491872    -1.990640
 O      5.893039     2.582758     1.996052
 O      7.255302    -3.946356     0.071121
 O      9.841852     1.360862    -3.583502
 O     10.896693    -2.582222     1.998509
 O     12.341777     1.137111    -0.046140
 O      9.760248     1.445890     3.606045
 O     10.977835    -2.503685    -1.972283
 O      9.533378     3.945141     0.067534
 O      7.033333    -1.442237     3.608780
 O      5.819322     2.509543    -1.978701
 O      4.465135    -1.132077    -0.021552
 O      6.951813    -1.366017    -3.581944
 H      5.610813     0.000605     1.975436
 H      8.397128     2.782635    -1.957373
 H      8.395589    -2.785696    -1.954337
 H     11.180482     0.000122     1.979792
 O      6.400054     0.002627     1.427484
 O      8.397121     1.997875    -1.403149
 O      8.395416    -2.000379    -1.400896
 O     10.395589     0.000229     1.425713
 O      8.395699    -1.467740     1.051515
 O      8.396758     1.468763     1.049245
 O      9.865694    -0.001275    -1.026967
 O      6.931228    -0.001028    -1.028019
Zr      8.396554     0.001948     2.544388
Zr     10.185309    -1.791356     0.013056
Zr     10.186466     1.790248     0.011269
Zr      8.397474    -0.002247    -2.521330
Zr      6.603490     1.788110     0.008662
Zr      6.601713    -1.786701     0.013760
 H      8.412053     5.606206     0.176308
 H      8.380313    -5.606534     0.180360
 H     14.002268     0.014387    -0.154236
 H      5.469968     2.691057    -3.945440
 H     11.309298     2.676270    -3.963920
 H     11.324516    -2.695366    -3.940283
 H      5.481537    -2.678257    -3.962511
 H      5.718825    -2.910714     3.990357
 H     11.088922    -2.927186     3.966564
 H     11.074267     2.914730     3.985681
 H      5.702036     2.928788     3.964575
 C     -5.060822     0.007711    -0.085752
 C     -7.393004    -2.327466     3.191828
 C     -7.400639     2.318034     3.206497
 C     -9.567752     4.505477     0.111642
 C     -7.254748    -2.189629    -3.169286
 C    -11.757607    -2.317765     3.205161
 C     -9.588863    -4.505043     0.114366
 C    -11.765671     2.330424     3.190439
 C     -7.259068     2.174788    -3.181267
 C    -14.085239    -0.008349    -0.089092
 C    -11.908515     2.186421    -3.167900
 C    -11.899901    -2.177518    -3.179818
 C     -3.568751     0.009759    -0.146619
 C     -0.743221     0.003427    -0.198388
 C      0.743149    -0.004021    -0.198345
 C     -2.850897     1.181618     0.115366
 C     -1.462798     1.172400     0.103938
 O     -8.209580    -1.459631     3.599175
 O     -7.086261     2.581340     2.015751
 O     -5.649670    -1.116214    -0.076898
 O     -8.122442    -1.372464    -3.575435
 O    -12.073444    -2.578837     2.014343
 O    -10.698233     3.951461     0.073040
 O    -11.039012     1.371617    -3.575629
 O    -12.160156    -2.493366    -1.988869
 O    -13.531341     1.122004    -0.050128
 O    -10.951606     1.460630     3.598704
 O     -6.996103     2.489928    -1.990505
 O     -8.458113    -3.952225     0.074694
 O     -8.135807     1.363194    -3.582819
 O    -10.717318    -3.944934     0.070664
 O    -12.080412     2.583876     1.996491
 O     -8.215473     1.444496     3.608111
 O     -5.648863     1.131773    -0.022807
 O     -7.076789    -2.581209     1.998201
 O    -10.944279    -1.442820     3.607232
 O     -8.438956     3.946357     0.068776
 O     -7.003263    -2.511150    -1.976853
 O    -11.025740    -1.363606    -3.582542
 O    -13.525620    -1.136970    -0.045278
 O    -12.161571     2.502356    -1.974334
 H    -12.364287     0.001737     1.979803
 H     -9.579421     2.784260    -1.956305
 H     -9.581111    -2.784074    -1.955182
 H     -6.794359     0.000421     1.975243
 O    -11.579331     0.001141     1.425814
 O     -9.579183     1.999368    -1.402262
 O     -9.581042    -1.998899    -1.401545
 O     -7.583744    -0.001650     1.427504
 O     -8.115087     0.000263    -1.027929
 O     -9.580630    -1.467750     1.050489
 O     -9.579319     1.468592     1.050522
 O    -11.049562     0.000593    -1.026933
Zr     -9.580148     0.000249     2.544582
Zr     -7.785355     1.786702     0.012609
Zr     -7.787406    -1.788114     0.010072
Zr     -9.581339     0.000309    -2.521287
Zr    -11.370346    -1.790074     0.012706
Zr    -11.369039     1.791460     0.011696
 H     -9.564070     5.606685     0.175901
 H     -9.596005    -5.605933     0.180518
 H    -15.186148    -0.014398    -0.154633
 H     -6.665972     2.675420    -3.964559
 H    -12.508037     2.692575    -3.942612
 H     -6.653879    -2.694121    -3.943514
 H    -12.493187    -2.679335    -3.962139
 H     -6.885269    -2.925235     3.967087
 H     -6.895288     2.908473     3.988861
 H    -12.273002     2.930392     3.964182
 H    -12.258820    -2.911081     3.987844

H C O 0
6-311g(d,p)
****
Zr 0
LanL2DZ
****

Zr 0
LanL2DZ ecp












