%chk=gaussian.chk
%nproc=20
%mem=90GB
#p opt b3lyp/gen int=grid=ultrafine pseudo=read scf=(tight,maxcycle=5000)

Title Card Required

0 1
 O    -13.212977    -2.941509     1.433414
 O    -14.666705    -1.095420    -0.275620
 O    -12.085092     0.677063     3.830320
 O    -12.085429    -2.166186     3.230322
 O    -14.666673     1.114631     0.190496
 O    -13.213044     2.112318     2.500184
 O     -8.132508     2.851919    -1.420133
 O     -6.770560     1.108048     0.192796
 O     -9.265992    -0.598378    -3.778872
 O     -9.265811     2.075811    -3.214168
 O     -6.771792    -1.090608    -0.271109
 O     -8.132912    -2.033521    -2.451609
 O     -8.219041     2.111679     2.501802
 O     -9.584541     3.849893     0.890637
 O    -12.170870     2.077384    -3.215577
 O    -12.170817    -0.599212    -3.780659
 O     -9.584630    -3.880293    -0.741533
 O     -8.219342    -2.941760     1.435045
 O    -13.298111    -2.034704    -2.450185
 O    -11.843934    -3.877238    -0.740242
 O     -9.351325    -2.165415     3.229499
 O     -9.351615     0.676692     3.829289
 O    -11.843838     3.846588     0.890581
 O    -13.298056     2.852778    -1.418439
 H    -10.715342     3.127008    -1.334766
 H     -7.925875    -0.408344     1.936048
 H    -10.715430    -2.319424    -2.484204
 H    -13.500373    -0.409284     1.941335
 C     -8.391686    -1.476327    -3.551727
 C    -13.044249     2.788697    -2.650836
 C     -8.538499    -2.936694     2.653867
 C    -12.897517     1.615433     3.614321
 C    -13.044279    -1.477995    -3.551534
 C    -12.897654    -2.937319     2.653360
 C     -8.391551     2.787015    -2.651549
 C     -8.538439     1.614574     3.614628
 C    -10.714786    -4.432212    -0.813194
 C     -6.178735     0.015084    -0.070727
 C    -15.223947     0.018594    -0.085142
 C    -10.714688     4.383724     1.048120
 C     -4.682718     0.024568    -0.123161
 O    -12.715432    -0.294708     1.399241
 O    -10.714601     2.244787    -0.954292
 O     -8.715904    -0.295121     1.400947
 O    -10.714755    -1.666243    -1.779615
 O     -9.248271     0.211906    -1.001178
 O    -10.713826    -1.653003     0.728031
 O    -12.185581     0.211687    -1.000215
 O    -10.713691     1.218565     1.333758
Zr    -12.505234    -1.755272    -0.353242
Zr    -10.716401    -0.525701     2.492894
Zr    -12.505178     1.749456     0.386503
Zr     -8.916540     1.744565     0.384368
Zr    -10.718337     0.520241    -2.461595
Zr     -8.916864    -1.750040    -0.353419
 H    -10.719710     5.446874     1.344341
 H    -16.325843     0.033021    -0.153722
 H    -10.719706    -5.524366    -0.971913
 H     -7.794331     3.437992    -3.310576
 H    -13.645516     3.439281    -3.308682
 H    -13.400130     2.041333     4.499426
 H     -8.039123     2.039724     4.500904
 H    -13.400234    -3.684827     3.290632
 H     -8.039120    -3.683877     3.292515
 H    -13.645504    -1.807179    -4.416200
 H     -7.794244    -1.805243    -4.417540
 O     14.548273    -1.095419    -0.275662
 O     13.094680    -2.941586     1.433439
 O     11.967214    -2.166274     3.230384
 O     11.966859     0.677121     3.830389
 O     13.094765     2.112356     2.500212
 O     14.548243     1.114638     0.190444
 O      6.652200     1.108061     0.192845
 O      8.014057     2.851900    -1.420181
 O      9.147405     2.075828    -3.214198
 O      9.147532    -0.598372    -3.778946
 O      8.014496    -2.033560    -2.451715
 O      6.653426    -1.090581    -0.271121
 O      9.466158     3.849929     0.890608
 O      8.100740     2.111703     2.501832
 O     12.052380    -0.599219    -3.780726
 O     12.052423     2.077325    -3.215581
 O      8.100979    -2.941730     1.435013
 O      9.466260    -3.880241    -0.741567
 O     11.725565    -3.877188    -0.740289
 O     13.179729    -2.034675    -2.450268
 O      9.233278     0.676700     3.829332
 O      9.233045    -2.165458     3.229451
 O     13.179618     2.852766    -1.418465
 O     11.725452     3.846597     0.890582
 H      7.807547    -0.408312     1.936080
 H     10.596928     3.127000    -1.334764
 H     10.597002    -2.319396    -2.484239
 H     13.382016    -0.409305     1.941358
 C     12.925875    -1.477981    -3.551619
 C      8.273110     2.787012    -2.651597
 C     12.779440    -2.937411     2.653414
 C      8.420118     1.614601     3.614665
 C      8.273236    -1.476347    -3.551835
 C      8.420191    -2.936711     2.653821
 C     12.925812     2.788640    -2.650857
 C     12.779295     1.615488     3.614379
 C     10.596413    -4.432148    -0.813291
 C     15.105505     0.018605    -0.085223
 C      6.060370     0.015112    -0.070731
 C     10.596309     4.383755     1.048091
 C      4.564351     0.024588    -0.123112
 O     12.597074    -0.294723     1.399265
 O      8.597570    -0.295114     1.400966
 O     10.596181     2.244781    -0.954284
 O     10.596357    -1.666225    -1.779641
 O      9.129864     0.211916    -1.001185
 O     12.067165     0.211688    -1.000209
 O     10.595462    -1.652981     0.728032
 O     10.595333     1.218563     1.333795
Zr     12.386852    -1.755275    -0.353244
Zr     10.598105    -0.525707     2.492932
Zr     12.386782     1.749458     0.386515
Zr      8.798171     1.744578     0.384375
Zr     10.599912     0.520221    -2.461626
Zr      8.798478    -1.750012    -0.353442
 H     10.601343     5.446916     1.344295
 H     10.601336    -5.524271    -0.972144
 H     16.207382     0.033044    -0.153881
 H     13.282094    -3.684946     3.290680
 H     13.527094    -1.807140    -4.416320
 H      7.920800     2.039797     4.500934
 H      7.675869     3.437968    -3.310657
 H      7.675785    -1.805246    -4.417689
 H      7.920824    -3.683916     3.292451
 H     13.281994     2.041397     4.499477
 H     13.527076     3.439175    -3.308739
 C     -0.954431     0.029488    -0.181876
 C      1.191180     0.029498    -0.181836
 C     -2.916365     0.030314    -0.172219
 C      2.916379     0.030325    -0.172155

H C O 0
6-311g(d,p)
****
Zr 0
LanL2DZ
****

Zr 0
LanL2DZ ecp












