%chk=gaussian.chk
%nproc=20
%mem=90GB
#p opt b3lyp/gen int=grid=ultrafine pseudo=read scf=(tight,maxcycle=5000)

Title Card Required

0 1
 H      5.578198     2.116387     0.320531
 H     -4.394486     2.116441     0.320136
 H     -4.401620    -2.065076    -0.579356
 H     -1.927500     2.126498     0.296217
 H     -1.935258    -2.064934    -0.641627
 C     -3.848772     1.205606     0.109094
 C     -3.852546    -1.151975    -0.387802
 C     -2.459108     1.206112     0.084325
 C     -2.463060    -1.146719    -0.411653
 O    -13.094606    -2.941509     1.433414
 O    -14.548334    -1.095420    -0.275620
 O    -11.966721     0.677063     3.830320
 O    -11.967058    -2.166186     3.230322
 O    -14.548302     1.114631     0.190496
 O    -13.094673     2.112318     2.500184
 O     -8.014137     2.851919    -1.420133
 O     -6.652189     1.108048     0.192796
 O     -9.147621    -0.598378    -3.778872
 O     -9.147440     2.075811    -3.214168
 O     -6.653421    -1.090608    -0.271109
 O     -8.014541    -2.033521    -2.451609
 O     -8.100670     2.111679     2.501802
 O     -9.466170     3.849893     0.890637
 O    -12.052499     2.077384    -3.215577
 O    -12.052446    -0.599212    -3.780659
 O     -9.466259    -3.880293    -0.741533
 O     -8.100971    -2.941760     1.435045
 O    -13.179740    -2.034704    -2.450185
 O    -11.725563    -3.877238    -0.740242
 O     -9.232954    -2.165415     3.229499
 O     -9.233244     0.676692     3.829289
 O    -11.725467     3.846588     0.890581
 O    -13.179685     2.852778    -1.418439
 H    -10.596971     3.127008    -1.334766
 H     -7.807504    -0.408344     1.936048
 H    -10.597059    -2.319424    -2.484204
 H    -13.382002    -0.409284     1.941335
 C     -8.273315    -1.476327    -3.551727
 C    -12.925878     2.788697    -2.650836
 C     -8.420128    -2.936694     2.653867
 C    -12.779146     1.615433     3.614321
 C    -12.925908    -1.477995    -3.551534
 C    -12.779283    -2.937319     2.653360
 C     -8.273180     2.787015    -2.651549
 C     -8.420068     1.614574     3.614628
 C    -10.596415    -4.432212    -0.813194
 C     -6.060364     0.015084    -0.070727
 C    -15.105576     0.018594    -0.085142
 C    -10.596317     4.383724     1.048120
 C     -4.564347     0.024568    -0.123161
 C     -0.244204     0.029488    -0.181876
 C     -1.732653     0.030314    -0.172219
 O    -12.597061    -0.294708     1.399241
 O    -10.596230     2.244787    -0.954292
 O     -8.597533    -0.295121     1.400947
 O    -10.596384    -1.666243    -1.779615
 O     -9.129900     0.211906    -1.001178
 O    -10.595455    -1.653003     0.728031
 O    -12.067210     0.211687    -1.000215
 O    -10.595320     1.218565     1.333758
Zr    -12.386863    -1.755272    -0.353242
Zr    -10.598030    -0.525701     2.492894
Zr    -12.386807     1.749456     0.386503
Zr     -8.798169     1.744565     0.384368
Zr    -10.599966     0.520241    -2.461595
Zr     -8.798493    -1.750040    -0.353419
 H    -10.601339     5.446874     1.344341
 H    -16.207472     0.033021    -0.153722
 H    -10.601335    -5.524366    -0.971913
 H     -7.675960     3.437992    -3.310576
 H    -13.527145     3.439281    -3.308682
 H    -13.281759     2.041333     4.499426
 H     -7.920752     2.039724     4.500904
 H    -13.281863    -3.684827     3.290632
 H     -7.920749    -3.683877     3.292515
 H    -13.527133    -1.807179    -4.416200
 H     -7.675873    -1.805243    -4.417540
 H      5.585355    -2.064978    -0.579664
 H      3.111201     2.126427     0.296645
 H      3.118983    -2.064834    -0.641949
 C      5.032486     1.205582     0.109357
 C      5.036272    -1.151917    -0.387949
 C      3.642821     1.206083     0.084599
 C      3.646786    -1.146663    -0.411804
 O     15.731985    -1.095419    -0.275662
 O     14.278392    -2.941586     1.433439
 O     13.150926    -2.166274     3.230384
 O     13.150571     0.677121     3.830389
 O     14.278477     2.112356     2.500212
 O     15.731955     1.114638     0.190444
 O      7.835912     1.108061     0.192845
 O      9.197769     2.851900    -1.420181
 O     10.331117     2.075828    -3.214198
 O     10.331244    -0.598372    -3.778946
 O      9.198208    -2.033560    -2.451715
 O      7.837138    -1.090581    -0.271121
 O     10.649870     3.849929     0.890608
 O      9.284452     2.111703     2.501832
 O     13.236092    -0.599219    -3.780726
 O     13.236135     2.077325    -3.215581
 O      9.284691    -2.941730     1.435013
 O     10.649972    -3.880241    -0.741567
 O     12.909277    -3.877188    -0.740289
 O     14.363441    -2.034675    -2.450268
 O     10.416990     0.676700     3.829332
 O     10.416757    -2.165458     3.229451
 O     14.363330     2.852766    -1.418465
 O     12.909164     3.846597     0.890582
 H      8.991259    -0.408312     1.936080
 H     11.780640     3.127000    -1.334764
 H     11.780714    -2.319396    -2.484239
 H     14.565728    -0.409305     1.941358
 C     14.109587    -1.477981    -3.551619
 C      9.456822     2.787012    -2.651597
 C     13.963152    -2.937411     2.653414
 C      9.603830     1.614601     3.614665
 C      9.456948    -1.476347    -3.551835
 C      9.603903    -2.936711     2.653821
 C     14.109524     2.788640    -2.650857
 C     13.963007     1.615488     3.614379
 C     11.780125    -4.432148    -0.813291
 C     16.289217     0.018605    -0.085223
 C      7.244082     0.015112    -0.070731
 C     11.780021     4.383755     1.048091
 C      5.748063     0.024588    -0.123112
 C      1.427922     0.029498    -0.181836
 C      2.916379     0.030325    -0.172155
 O     13.780786    -0.294723     1.399265
 O      9.781282    -0.295114     1.400966
 O     11.779893     2.244781    -0.954284
 O     11.780069    -1.666225    -1.779641
 O     10.313576     0.211916    -1.001185
 O     13.250877     0.211688    -1.000209
 O     11.779174    -1.652981     0.728032
 O     11.779045     1.218563     1.333795
Zr     13.570564    -1.755275    -0.353244
Zr     11.781817    -0.525707     2.492932
Zr     13.570494     1.749458     0.386515
Zr      9.981883     1.744578     0.384375
Zr     11.783624     0.520221    -2.461626
Zr      9.982190    -1.750012    -0.353442
 H     11.785055     5.446916     1.344295
 H     11.785048    -5.524271    -0.972144
 H     17.391094     0.033044    -0.153881
 H     14.465806    -3.684946     3.290680
 H     14.710806    -1.807140    -4.416320
 H      9.104512     2.039797     4.500934
 H      8.859581     3.437968    -3.310657
 H      8.859497    -1.805246    -4.417689
 H      9.104536    -3.683916     3.292451
 H     14.465706     2.041397     4.499477
 H     14.710788     3.439175    -3.308739

H C O 0
6-311g(d,p)
****
Zr 0
LanL2DZ
****

Zr 0
LanL2DZ ecp












