  144
scf done: -6695.086297
 H    -1.239230    -2.147058     0.379533
 H     1.239217    -2.147072     0.379581
 H     1.239240     2.148844     0.376502
 H    -1.239205     2.148858     0.376451
 C    -0.692217    -1.212576     0.379231
 C     0.692215    -1.212583     0.379258
 C     0.692230     1.214360     0.377521
 C    -0.692205     1.214367     0.377493
 O    12.667683     2.582550     1.672944
 O    13.878430     1.129037    -0.530644
 O    11.725036    -1.449957     3.391062
 O    11.725305     1.454285     3.389070
 O    13.878207    -1.130609    -0.529094
 O    12.667215    -2.580792     1.676519
 O     7.179948    -2.491994    -1.702570
 O     6.050262    -1.128227     0.360511
 O     8.121327     1.357861    -3.420286
 O     8.121055    -1.362324    -3.418383
 O     6.050443     1.129455     0.358965
 O     7.180407     2.490043    -1.706028
 O     7.720128    -2.580911     2.239333
 O     8.853242    -3.941771     0.175099
 O    11.006637    -1.362874    -3.746428
 O    11.006926     1.357355    -3.748302
 O     8.854022     3.942150     0.169640
 O     7.720620     2.584425     2.235717
 O    12.309947     2.488320    -2.289093
 O    11.099239     3.941803    -0.085599
 O     9.022700     1.454611     3.696533
 O     9.022454    -1.449338     3.698571
 O    11.098467    -3.942194    -0.080069
 O    12.309423    -2.492031    -2.285613
 H     9.745588    -2.784988    -1.973618
 H     7.422782     0.001777     2.248956
 H     9.746147     2.782207    -1.977506
 H    12.957079     0.000837     1.621576
 C     7.290254     2.158803    -2.916101
 C    11.928952    -2.164054    -3.440552
 C     8.180159     2.336243     3.381695
 C    12.475110    -2.332335     2.896176
 C    11.929414     2.158772    -3.443564
 C    12.475541     2.335834     2.892945
 C     7.289833    -2.162418    -2.913092
 C     8.179735    -2.331236     3.384960
 C     9.983092     4.495449     0.098586
 C     5.477654     0.000660     0.357650
 C    14.421789    -0.000921    -0.649373
 C     9.982209    -4.495381     0.104828
 C     4.034086     0.000769     0.367142
 O    12.114961     0.000574     1.159072
 O     9.809124    -2.000260    -1.422944
 O     8.141628     0.001270     1.611312
 O     9.809527     1.998238    -1.425734
 O     8.391184    -0.000498    -0.886593
 O    10.086024     1.469504     1.011079
 O    11.310997    -0.001012    -1.218003
 O    10.085737    -1.468155     1.013125
Zr    11.746715     1.788849    -0.223305
Zr    10.254128     0.001688     2.494687
Zr    11.746372    -1.789571    -0.220812
Zr     8.190251    -1.788520     0.183979
Zr     9.682754    -0.001773    -2.534427
Zr     8.190600     1.789056     0.181488
 H     9.993527    -5.590409     0.205643
 H    15.498449    -0.001181    -0.873302
 H     9.994620     5.590609     0.197936
 H     6.585647    -2.636907    -3.611807
 H    12.456242    -2.641043    -4.279476
 H    13.035963    -2.950570     3.612118
 H     7.792336    -2.947905     4.208937
 H    13.036514     2.954961     3.608022
 H     7.792870     2.954126     4.204813
 H    12.456798     2.634459    -4.283166
 H     6.586162     2.632469    -3.615468
 O   -13.878439     1.129032    -0.530576
 O   -12.667605     2.582674     1.672877
 O   -11.725186     1.454499     3.389040
 O   -11.724930    -1.449740     3.391206
 O   -12.667187    -2.580667     1.676767
 O   -13.878235    -1.130614    -0.528897
 O    -6.050254    -1.128223     0.360447
 O    -7.180015    -2.492117    -1.702502
 O    -8.121176    -1.362556    -3.418358
 O    -8.121425     1.357630    -3.420425
 O    -7.180447     2.489923    -1.706274
 O    -6.050429     1.129458     0.358772
 O    -8.853259    -3.941767     0.175304
 O    -7.720072    -2.580781     2.239419
 O   -11.007040     1.357128    -3.748351
 O   -11.006768    -1.363100    -3.746311
 O    -7.720546     2.584560     2.235481
 O    -8.853992     3.942160     0.169344
 O   -11.099218     3.941806    -0.085816
 O   -12.310009     2.488189    -2.289170
 O    -9.022336    -1.449112     3.698638
 O    -9.022567     1.454834     3.696417
 O   -12.309512    -2.492155    -2.285379
 O   -11.098493    -3.942187    -0.079778
 H    -7.422715     0.001902     2.248882
 H    -9.745665    -2.785110    -1.973449
 H    -9.746194     2.782083    -1.977682
 H   -12.957021     0.000952     1.621680
 C   -11.929517     2.158566    -3.443632
 C    -7.289942    -2.162621    -2.913043
 C   -12.475429     2.336027     2.892886
 C    -8.179637    -2.331036     3.385049
 C    -7.290329     2.158599    -2.916320
 C    -8.180043     2.336449     3.381492
 C   -11.929078    -2.164254    -3.440353
 C   -12.475034    -2.332139     2.896401
 C    -9.983061     4.495460     0.098291
 C   -14.421811    -0.000929    -0.649225
 C    -5.477643     0.000662     0.357497
 C    -9.982232    -4.495372     0.105109
 C    -4.034076     0.000767     0.366973
 O   -12.114923     0.000660     1.159141
 O    -8.141575     0.001360     1.611253
 O    -9.809181    -2.000346    -1.422824
 O    -9.809561     1.998146    -1.425862
 O    -8.391214    -0.000560    -0.886640
 O   -11.311033    -0.001079    -1.217956
 O   -10.085983     1.469570     1.010997
 O   -10.085715    -1.468095     1.013223
Zr   -11.746710     1.788848    -0.223355
Zr   -10.254045     0.001842     2.494697
Zr   -11.746391    -1.789573    -0.220642
Zr    -8.190255    -1.788517     0.184033
Zr    -9.682835    -0.001931    -2.534437
Zr    -8.190584     1.789061     0.181322
 H    -9.993554    -5.590394     0.205990
 H    -9.994581     5.590627     0.197564
 H   -15.498478    -0.001193    -0.873122
 H   -13.036373     2.955201     3.607944
 H   -12.456930     2.634198    -4.283248
 H    -7.792213    -2.947659     4.209048
 H    -6.585785    -2.637164    -3.611750
 H    -6.586253     2.632209    -3.615741
 H    -7.792729     2.954388     4.204556
 H   -13.035871    -2.950321     3.612402
 H   -12.456400    -2.641292    -4.279228
 C     1.404774     0.000887     0.377756
 C    -1.404763     0.000902     0.377701
 C     2.825780     0.000854     0.374389
 C    -2.825769     0.000884     0.374278
