  160
scf done: -7004.985854
 H    -5.560395    -2.004207     0.781184
 H     5.560393    -2.004213     0.781159
 H     5.564976     2.152044    -0.228302
 H    -5.564978     2.152051    -0.228275
 H    -3.087364    -2.007170     0.795688
 H     3.087362    -2.007173     0.795675
 H     3.091951     2.158152    -0.252132
 H    -3.091954     2.158156    -0.252117
 H    -1.223684    -1.859379    -0.654657
 H     1.223676    -1.859380    -0.654663
 H     1.223679     2.012994     1.194753
 H    -1.223675     2.012996     1.194759
 C    -5.009896    -1.099753     0.556705
 C     5.009893    -1.099758     0.556683
 C     5.012453     1.248989    -0.003121
 C    -5.012455     1.248995    -0.003097
 C    -3.622422    -1.096695     0.552696
 C     3.622420    -1.096699     0.552679
 C     3.624937     1.247382    -0.005691
 C    -3.624939     1.247386    -0.005673
 C    -0.694222    -1.014670    -0.229338
 C     0.694216    -1.014671    -0.229341
 C     0.694235     1.168294     0.769386
 C    -0.694234     1.168294     0.769390
 O    14.387902     2.903674     1.051343
 O   -15.623905     0.978412    -0.736901
 O   -14.387913     2.903669     1.051327
 O    15.623908     0.978418    -0.736874
 O   -13.424361     2.203700     2.971733
 O   -13.420434    -0.621395     3.649636
 O    13.420411    -0.621388     3.649649
 O    13.424337     2.203705     2.971743
 O   -14.380187    -2.120029     2.257037
 O    15.620442    -1.219017    -0.209217
 O    14.380175    -2.120023     2.257057
 O   -15.620438    -1.219024    -0.209246
 O     8.934595    -2.829461    -1.124747
 O    -7.796756    -1.018182     0.554824
 O    -8.934583    -2.829455    -1.124731
 O     7.796754    -1.018188     0.554799
 O    -9.903995    -2.127347    -3.041790
 O    -9.907702     0.518396    -3.676308
 O     9.907726     0.518390    -3.676320
 O     9.904019    -2.127353    -3.041800
 O    -8.941939     2.017185    -2.287570
 O     7.799799     1.167958     0.030037
 O     8.941951     2.017178    -2.287590
 O    -7.799801     1.167965     0.030065
 O     9.427002    -1.995114     2.744445
 O   -10.577781    -3.797699     1.063336
 O    -9.427017    -1.995113     2.744458
 O    10.577780    -3.797700     1.063332
 O   -12.797488     0.446962    -3.956437
 O   -12.793536    -2.199152    -3.321317
 O    12.793562    -2.199153    -3.321307
 O    12.797513     0.446960    -3.956430
 O    -9.434417     3.028085     1.538947
 O    10.589691     3.867819    -0.775984
 O     9.434401     3.028082     1.538930
 O   -10.589692     3.867821    -0.775974
 O    14.079930     1.890665    -2.782763
 O   -12.838758     3.813407    -0.992793
 O   -14.079914     1.890664    -2.782778
 O    12.838758     3.813408    -0.992788
 O   -10.714156    -0.553379     3.915804
 O   -10.718575     2.271494     3.237779
 O    10.718550     2.271496     3.237771
 O    10.714131    -0.553377     3.915799
 O   -14.072709    -2.956438    -1.619324
 O    12.826915    -3.853779     0.847256
 O    14.072725    -2.956436    -1.619305
 O   -12.826915    -3.853782     0.847243
 H    -9.130886     0.516522     2.140091
 H    11.505362    -3.171182    -1.281749
 H     9.130871     0.516520     2.140074
 H   -11.505348    -3.171181    -1.281751
 H   -11.513346     2.242688    -2.581426
 H    11.513360     2.242685    -2.581429
 H   -14.674877     0.380047     1.606162
 H    14.674866     0.380053     1.606182
 C     9.070468     1.413134    -3.385113
 C    13.709443    -2.906286    -2.824133
 C     9.880881     3.054000     2.716183
 C    14.174390    -1.594118     3.382819
 C    13.715743     1.300123    -3.833798
 C    14.181256     2.946838     2.292995
 C     9.064333    -2.789880    -2.376731
 C     9.873992    -1.485122     3.805596
 C    11.720451     4.391626    -0.957859
 C     7.207904     0.073753     0.284216
 C    16.166798    -0.147463    -0.582592
 C    11.707021    -4.350022     1.140065
 C   -13.715719     1.300123    -3.833811
 C    -9.064313    -2.789873    -2.376716
 C   -14.181276     2.946832     2.292981
 C    -9.874014    -1.485122     3.805607
 C    -9.070448     1.413141    -3.385094
 C    -9.880905     3.054000     2.716198
 C   -13.709419    -2.906287    -2.824150
 C   -14.174410    -1.594125     3.382801
 C   -11.720452     4.391627    -0.957855
 C   -16.166793    -0.147470    -0.582624
 C    -7.207906     0.073761     0.284251
 C   -11.707021    -4.350023     1.140060
 C     5.718391     0.074403     0.279147
 C    -5.718393     0.074410     0.279174
 C     1.419858     0.076625     0.270440
 C    -1.419860     0.076626     0.270446
 C     2.902057     0.075837     0.272336
 C    -2.902059     0.075840     0.272349
 O    13.838227     0.271050     1.146633
 O   -13.838236     0.271045     1.146618
 O    11.562352    -2.279344    -0.929100
 O    -9.864673     0.370859     1.537165
 O   -11.562342    -2.279343    -0.929101
 O     9.864663     0.370857     1.537152
 O   -11.568034     1.607983    -1.862297
 O    11.568044     1.607981    -1.862299
 O    10.143431    -0.212913    -0.892896
 O   -10.143425    -0.212909    -0.892886
 O    11.813261     1.661423     0.635008
 O   -13.065917    -0.285268    -1.175762
 O   -11.813268     1.661422     0.635008
 O    13.065926    -0.285267    -1.175753
 O   -11.808985    -1.194904     1.321090
 O    11.808978    -1.194902     1.321093
Zr    13.488130     1.688236    -0.618241
Zr   -13.488129     1.688234    -0.618251
Zr   -11.961705     0.579750     2.421457
Zr    11.961688     0.579753     2.421459
Zr   -13.482864    -1.791877     0.217086
Zr    13.482866    -1.791873     0.217100
Zr     9.920681    -1.698869     0.562837
Zr    -9.920682    -1.698866     0.562847
Zr   -11.455302    -0.595061    -2.476904
Zr    11.455319    -0.595063    -2.476905
Zr    -9.925779     1.772422    -0.270395
Zr     9.925778     1.772419    -0.270409
 H    11.715329    -5.391449     1.493683
 H    17.246183    -0.198309    -0.787249
 H    11.731883     5.480040    -1.115673
 H   -11.715330    -5.391450     1.493677
 H   -11.731884     5.480040    -1.115669
 H   -17.246177    -0.198319    -0.787288
 H     8.370790    -3.415527    -2.957444
 H    14.247485    -3.564828    -3.521510
 H    14.725840    -2.028025     4.229648
 H     9.476511    -1.893816     4.746140
 H    14.734717     3.716145     2.850978
 H     9.485266     3.846176     3.368583
 H   -14.734742     3.716138     2.850960
 H   -14.255159     1.568805    -4.753760
 H    -9.476540    -1.893817     4.746152
 H    -8.370764    -3.415519    -2.957425
 H    -8.378199     1.709009    -4.186880
 H    -9.485295     3.846177     3.368601
 H   -14.725864    -2.028034     4.229625
 H   -14.247455    -3.564829    -3.521531
 H    14.255188     1.568805    -4.753744
 H     8.378224     1.709000    -4.186903
