  144
scf done: -6695.100964
 H    -3.784883     2.139597     0.393777
 H    -3.784809    -2.139274     0.394357
 H    -1.296942     2.149684     0.402533
 H    -1.296868    -2.149274     0.403038
 C    -3.229298     1.210993     0.397789
 C    -3.229256    -1.210650     0.398103
 C    -1.843535     1.214946     0.401876
 C    -1.843494    -1.214555     0.402176
 O   -12.631217    -2.582185     1.649855
 O    13.911164    -1.130021    -0.545853
 O    12.709577    -2.580871     1.664656
 O    11.774110    -1.451005     3.383533
 O    11.774144     1.453054     3.382619
 O    12.709633     2.581841     1.663045
 O    13.911197     1.129598    -0.546550
 O     6.083718     1.129442     0.376636
 O     7.208189     2.490065    -1.690820
 O     8.140465     1.359046    -3.410347
 O     8.140469    -1.361116    -3.409525
 O     7.208182    -2.491098    -1.689330
 O     6.083687    -1.129094     0.377273
 O     8.890915     3.942062     0.176794
 O     7.765074     2.583231     2.246098
 O    11.024692    -1.361147    -3.750819
 O    11.024685     1.358812    -3.751677
 O     7.765031    -2.581782     2.247686
 O     8.890801    -3.941939     0.179228
 O    11.134724    -3.941890    -0.086291
 O    12.334806    -2.490244    -2.296489
 O     9.072753     1.452971     3.701392
 O     9.072701    -1.450649     3.702296
 O    12.334859     2.488750    -2.298055
 O    11.134839     3.941805    -0.088742
 H     7.467114     0.000704     2.261073
 H     9.771941     2.782844    -1.974837
 H     9.771877    -2.784067    -1.973103
 H    12.998806     0.000456     1.609428
 C    11.948743    -2.162037    -3.449514
 C     7.311394     2.159274    -2.901641
 C    12.522268    -2.333074     2.885175
 C     8.228684     2.334537     3.390332
 C     7.311389    -2.161036    -2.900349
 C     8.228623    -2.332393     3.391779
 C    11.948764     2.159859    -3.450874
 C    12.522321     2.334797     2.883717
 C    10.019392    -4.495430     0.103473
 C    14.454159    -0.000258    -0.667950
 C     5.513612     0.000169     0.375545
 C    10.019514     4.495481     0.100685
 C     4.070330     0.000181     0.386312
 O    12.154825     0.000328     1.150337
 O     8.182297     0.000522     1.619275
 O     9.838241     1.998795    -1.423502
 O     9.838196    -1.999677    -1.422255
 O     8.421371    -0.000266    -0.878730
 O    11.340415    -0.000399    -1.223235
 O    10.125173    -1.468508     1.012539
 O    10.125224     1.469131     1.011641
Zr    11.780753    -1.789176    -0.228781
Zr    10.299337     0.000763     2.494000
Zr    11.780794     1.788986    -0.229899
Zr     8.226749     1.789580     0.190594
Zr     9.705913    -0.000782    -2.532379
Zr     8.226696    -1.789444     0.191688
 H    10.031463     5.590597     0.200232
 H    10.031315    -5.590483     0.203703
 H    15.529882    -0.000343    -0.896347
 H    13.085965    -2.951656     3.598586
 H    12.472299    -2.638529    -4.291060
 H     7.844039     2.951726     4.215133
 H     6.602990     2.632547    -3.596777
 H     6.602987    -2.634726    -3.595205
 H     7.843952    -2.949066     4.216953
 H    13.086034     2.953806     3.596746
 H    12.472314     2.635832    -4.292718
 O   -13.823875    -1.129979    -0.564643
 O   -11.704113     1.453069     3.372473
 O   -11.704061    -1.452060     3.372947
 O   -13.823914     1.129655    -0.565006
 O   -12.631313     2.582607     1.649019
 O    -7.113436     2.489765    -1.686827
 O    -6.011144     1.124739     0.388340
 O    -8.045366    -1.361174    -3.407609
 O    -8.045409     1.360118    -3.408046
 O    -6.011098    -1.124505     0.388728
 O    -7.113346    -2.490214    -1.686019
 O    -7.686099     2.581508     2.253676
 O    -8.801990     3.940776     0.177751
 O   -10.928759     1.359698    -3.758802
 O   -10.928720    -1.360962    -3.758361
 O    -8.801850    -3.940690     0.179021
 O    -7.686006    -2.580720     2.254516
 O   -12.241280    -2.492032    -2.307972
 O   -11.045223    -3.942149    -0.093291
 O    -9.004075    -1.452424     3.702423
 O    -9.004126     1.453642     3.701957
 O   -11.045363     3.942061    -0.094561
 O   -12.241362     2.491189    -2.308782
 H    -9.681093     2.783546    -1.977158
 H    -7.390654     0.000396     2.262160
 H    -9.681002    -2.784194    -1.976255
 H   -12.921522     0.000193     1.594062
 C    -7.217317    -2.161124    -2.897545
 C   -11.852738     2.161979    -3.460620
 C    -8.157478    -2.332851     3.396053
 C   -12.449837     2.335189     2.870537
 C   -11.852671    -2.163178    -3.459917
 C   -12.449752    -2.334368     2.871293
 C    -7.217394     2.160272    -2.898245
 C    -8.157564     2.334001     3.395295
 C    -9.930275    -4.494799     0.099960
 C    -5.426233     0.000129     0.386743
 C   -14.366388    -0.000192    -0.688995
 C    -9.930436     4.494816     0.098513
 C    -3.931598     0.000159     0.395746
 C     0.287337     0.000232     0.404051
 C     1.502396     0.000247     0.401135
 C    -1.130806     0.000207     0.403641
 C     2.857171     0.000231     0.395676
 O   -12.075383     0.000138     1.138917
 O    -9.748066     1.998925    -1.426755
 O    -8.108587     0.000287     1.623655
 O    -9.748001    -1.999394    -1.426109
 O    -8.336131    -0.000124    -0.878558
 O   -10.045104    -1.468456     1.008853
 O   -11.251964    -0.000229    -1.231612
 O   -10.045155     1.468762     1.008378
Zr   -11.695025    -1.789674    -0.238773
Zr   -10.226307     0.000390     2.490029
Zr   -11.695086     1.789520    -0.239354
Zr    -8.142408     1.786003     0.193700
Zr    -9.614891    -0.000413    -2.535940
Zr    -8.142344    -1.785894     0.194279
 H    -9.942070     5.589910     0.198623
 H   -15.441059    -0.000247    -0.922149
 H    -9.941866    -5.589862     0.200418
 H    -6.509722     2.634856    -3.593515
 H   -12.373345     2.638588    -4.303865
 H   -13.016708     2.954075     3.581095
 H    -7.777682     2.951500     4.222199
 H   -13.016604    -2.953045     3.582049
 H    -7.777571    -2.950060     4.223163
 H   -12.373266    -2.640075    -4.303006
 H    -6.509622    -2.635905    -3.592657
