  136
scf done: -6540.150813
 O   -11.720409    -0.385230     3.146523
 O   -13.022531    -1.085361     0.646534
 O   -10.792135     3.541919     1.190424
 O   -10.746219     1.639599     3.384390
 O   -13.060047     0.393834    -1.060987
 O   -11.808040     2.995820    -0.752581
 O    -6.420640     0.321992    -3.067191
 O    -5.199158     0.976126    -0.731359
 O    -7.348313    -3.484657    -1.255032
 O    -7.393534    -1.702648    -3.309156
 O    -5.160795    -0.506477     0.974455
 O    -6.340199    -2.939077     0.691748
 O    -6.846593     3.362598    -0.547160
 O    -8.066866     2.707816    -2.887564
 O   -10.288007    -1.919226    -3.432862
 O   -10.241667    -3.701226    -1.378291
 O    -7.936632    -2.454238     3.069162
 O    -6.755639    -0.019955     3.352078
 O   -11.485128    -3.322191     0.469930
 O   -10.187354    -2.624770     2.971298
 O    -8.034406     1.836790     3.498664
 O    -8.081993     3.739637     1.306537
 O   -10.317948     2.540942    -2.981808
 O   -11.566910    -0.061941    -3.289127
 H    -9.000629     0.335931    -3.389618
 H    -6.507958     1.681186     1.405393
 H    -8.907641    -3.309448     0.815875
 H   -12.055814     1.268654     1.170855
 C    -6.490001    -3.637012    -0.346305
 C   -11.215109    -1.153948    -3.808695
 C    -7.185583     1.012997     3.930853
 C   -11.573117     3.753820     0.225362
 C   -11.142657    -3.984553    -0.545120
 C   -11.495392     0.696067     3.751738
 C    -6.560291    -0.807061    -3.608405
 C    -7.265345     4.070707     0.406738
 C    -9.057675    -2.858685     3.476598
 C    -4.617072     0.226937     0.102164
 C   -13.588301    -0.429794    -0.267942
 C    -9.206489     3.029446    -3.316578
 C    -3.171444     0.219943     0.062612
 O   -11.228078     0.909566     0.840577
 O    -9.034457     0.240907    -2.434106
 O    -7.240233     1.202682     1.007676
 O    -8.967561    -2.378362     0.586427
 O    -7.565490    -0.678018    -0.617040
 O    -9.180112    -0.188126     1.789804
 O   -10.495012    -0.895773    -0.740891
 O    -9.229339     1.735983    -0.429877
Zr   -10.872879    -1.310887     1.276130
Zr    -9.327862     1.896501     1.655535
Zr   -10.932786     1.033506    -1.426612
Zr    -7.368144     1.299356    -1.277155
Zr    -8.906593    -1.908897    -1.654501
Zr    -7.307864    -1.046959     1.428604
 H    -9.233076     3.820859    -4.079465
 H   -14.671151    -0.585399    -0.378984
 H    -9.047778    -3.500021     4.369706
 H    -5.883460    -1.031799    -4.445159
 H   -11.774783    -1.470398    -4.700736
 H   -12.121899     4.706503     0.244615
 H    -6.862904     5.092137     0.466905
 H   -12.022753     0.837757     4.706171
 H    -6.761985     1.225854     4.922868
 H   -11.685924    -4.924875    -0.717743
 H    -5.798562    -4.483349    -0.466633
 O    13.055967     0.452566     1.053892
 O    11.808069     3.032892     0.586878
 O    10.804758     3.460915    -1.391982
 O    10.763783     1.431947    -3.467612
 O    11.736173    -0.575006    -3.103908
 O    13.024371    -1.127348    -0.560902
 O     5.164716    -0.560126    -0.960908
 O     6.339204    -2.972886    -0.528687
 O     7.336098    -3.400697     1.453074
 O     7.375574    -1.498945     3.398306
 O     6.408032     0.509593     3.032443
 O     5.196721     1.021799     0.653717
 O     7.947705    -2.632749    -2.921833
 O     6.773681    -0.218559    -3.356164
 O    10.268137    -1.711509     3.547825
 O    10.228673    -3.613526     1.603826
 O     6.847915     3.391583     0.334667
 O     8.057251     2.877157     2.716449
 O    10.307484     2.711983     2.832350
 O    11.552068     0.130824     3.298019
 O     8.053877     1.626177    -3.606722
 O     8.094321     3.656372    -1.531021
 O    11.481489    -3.347222    -0.257682
 O    10.197924    -2.797372    -2.803584
 H     6.516423     1.597755    -1.514751
 H     8.905931    -3.352010    -0.616700
 H     8.984756     0.538337     3.363378
 H    12.062365     1.193799    -1.229232
 C    11.195756    -0.927496     3.880682
 C     6.481757    -3.606271     0.550866
 C    11.580317     3.730340    -0.436774
 C     7.206119     0.778773    -3.992927
 C     6.544231    -0.584744     3.641434
 C     7.273872     4.041638    -0.656708
 C    11.133374    -3.947108     0.793611
 C    11.514573     0.468059    -3.773869
 C     9.195381     3.222093     3.131044
 C    13.586959    -0.417588     0.314374
 C     4.618154     0.224812    -0.136622
 C     9.070331    -3.061605    -3.298616
 C     3.172612     0.219195    -0.103060
 O    11.233175     0.854492    -0.882219
 O     7.246055     1.142505    -1.086061
 O     8.966742    -2.408950    -0.443113
 O     9.022826     0.385559     2.415566
 O     7.560671    -0.637969     0.649670
 O    10.489639    -0.851548     0.800063
 O     9.229698     1.760097     0.327328
 O     9.188359    -0.294796    -1.773565
Zr    10.927218     1.114299     1.372043
Zr     9.338269     1.793908    -1.763718
Zr    10.877480    -1.386831    -1.185961
Zr     7.313444    -1.128489    -1.371655
Zr     8.894932    -1.806397     1.765333
Zr     7.363727     1.375587     1.189488
 H     9.064195    -3.756350    -4.150879
 H     9.219746     4.057350     3.845764
 H    14.669227    -0.566791     0.439067
 H    12.130645     4.679448    -0.510636
 H    11.751546    -1.191147     4.792120
 H     6.787554     0.932248    -4.997986
 H     5.788066    -4.442541     0.718900
 H     5.864904    -0.757184     4.488500
 H     6.873043     5.058052    -0.779756
 H    12.046849     0.552482    -4.732360
 H    11.674570    -4.875951     1.024919
 C    -0.609616     0.216162    -0.006300
 C     0.610638     0.218210    -0.038747
 C    -1.957219     0.217765     0.029721
 C     1.958080     0.220826    -0.074496
