  142
scf done: -6618.925484
 H    -2.519597    -2.139143     0.379633
 H    -0.029355    -2.147676     0.381750
 H    -2.519682     2.139879     0.378221
 H    -0.029441     2.148514     0.380295
 C    -1.963808    -1.210692     0.381734
 C    -0.577542    -1.213820     0.382173
 C    11.204026     2.334772     2.899092
 C    11.203795    -2.333408     2.900392
 C    13.150771    -0.000435    -0.643816
 C     6.908428    -2.332740     3.388500
 C    10.658769    -2.162597    -3.436372
 C     8.711589     4.495441     0.105154
 C    10.659035     2.160423    -3.437542
 C     6.908752     2.334755     3.387259
 C     8.711186    -4.495410     0.107636
 C     6.019560    -2.161310    -2.910069
 C     6.019921     2.159958    -2.911376
 C     4.206662     0.000393     0.361525
 C     2.763542     0.000455     0.371321
 O    10.453734    -1.451253     3.395617
 O     9.736545    -1.361333    -3.742224
 O    12.607328    -1.130224    -0.524009
 O    11.396373     2.582041     1.679230
 O     7.582545     3.942153     0.175624
 O     6.449199    -2.582109     2.242734
 O     6.851174     1.359219    -3.415754
 O     7.751201     1.452933     3.701999
 O     4.780376     1.129030     0.363153
 O     5.909788    -2.491752    -1.699851
 O     9.827546    -3.942198    -0.076851
 O    11.039242     2.489637    -2.282875
 O     6.449678     2.583584     2.241322
 O     7.582230    -3.941928     0.177916
 O     9.736791     1.359003    -3.742913
 O    11.396037    -2.581441     1.680666
 O    12.607409     1.129473    -0.524729
 O    10.453811     1.453021     3.394811
 O    11.039007    -2.491085    -2.281509
 O     9.827887     3.941981    -0.078945
 O     7.751131    -1.450968     3.702673
 O     5.910031     2.490937    -1.701322
 O     4.780285    -1.128289     0.363793
 O     6.850816    -1.360867    -3.414895
 H     6.150991     0.000773     2.252747
 H     8.475295     2.782991    -1.971653
 H     8.474993    -2.784153    -1.970063
 H    11.685698     0.000288     1.626793
 O     6.870528     0.000545     1.615864
 O     8.538685     1.998792    -1.420222
 O     8.538479    -1.999606    -1.419138
 O    10.843637     0.000200     1.164206
 O     8.814510    -1.468576     1.017266
 O     8.814686     1.469133     1.016484
 O    10.040356    -0.000415    -1.213188
 O     7.120555    -0.000184    -0.882311
Zr     8.982508     0.000676     2.499400
Zr    10.475117    -1.789335    -0.216449
Zr    10.475318     1.789010    -0.217438
Zr     8.412111    -0.000734    -2.529789
Zr     6.918928     1.788792     0.186559
Zr     6.918709    -1.788530     0.187570
 H     8.723087     5.590578     0.204996
 H     8.722544    -5.590496     0.208047
 H    14.227475    -0.000542    -0.867665
 H     5.315809     2.633678    -3.610690
 H    11.186614     2.636512    -4.276828
 H    11.186299    -2.639242    -4.275372
 H     5.315306    -2.635263    -3.609081
 H     6.520762    -2.949618     4.212210
 H    11.764624    -2.951946     3.616130
 H    11.764884     2.953674     3.614492
 H     6.521170     2.952181     4.210597
 C    -4.160589     0.000325     0.376219
 C    -6.880595    -2.332437     3.395491
 C    -6.880761     2.334312     3.394283
 C    -8.665976     4.494810     0.103865
 C    -5.963823    -2.161320    -2.901738
 C   -11.174833    -2.334172     2.886559
 C    -8.665379    -4.494795     0.106060
 C   -11.175078     2.335243     2.885450
 C    -5.963958     2.160161    -2.902705
 C   -13.104622    -0.000453    -0.666706
 C   -10.601340     2.161651    -3.447898
 C   -10.601073    -2.163595    -3.446820
 C    -2.665519     0.000365     0.381029
 C     0.133167     0.000422     0.381535
 C     1.555345     0.000438     0.378367
 C    -1.963856     1.211451     0.380932
 C    -0.577592     1.214637     0.381362
 O    -7.726018    -1.451948     3.705000
 O    -6.413576     2.581769     2.250924
 O    -4.745621    -1.124190     0.379910
 O    -6.793827    -1.361455    -3.408835
 O   -11.360834    -2.582123     1.665829
 O    -9.781604     3.942004    -0.085088
 O    -9.678429     1.359424    -3.749485
 O   -10.985365    -2.492416    -2.293418
 O   -12.561780     1.129437    -0.544793
 O   -10.427500     1.453194     3.384725
 O    -5.855755     2.489888    -1.691753
 O    -7.536693    -3.940688     0.180867
 O    -6.793765     1.359870    -3.409429
 O    -9.781078    -3.942189    -0.083062
 O   -11.361029     2.582625     1.664597
 O    -7.726261     1.454029     3.704142
 O    -4.745697     1.124797     0.379440
 O    -6.413529    -2.580469     2.252215
 O   -10.427283    -1.451850     3.385391
 O    -7.537248     3.940843     0.179070
 O    -5.855406    -2.490310    -1.690614
 O    -9.678347    -1.361309    -3.748798
 O   -12.561624    -1.130220    -0.544317
 O   -10.985759     2.490891    -2.294659
 H   -11.651258     0.000229     1.610829
 H    -8.424207     2.783403    -1.972482
 H    -8.423861    -2.784315    -1.971130
 H    -6.117991     0.000667     2.258468
 O   -10.806793     0.000147     1.152593
 O    -8.489162     1.998791    -1.421828
 O    -8.488888    -1.999473    -1.420813
 O    -6.838344     0.000485     1.622686
 O    -7.075247    -0.000117    -0.878680
 O    -8.776996    -1.468419     1.015195
 O    -8.777160     1.468853     1.014441
 O    -9.992267    -0.000404    -1.221019
Zr    -8.952721     0.000575     2.496840
Zr    -6.877293     1.786085     0.192685
Zr    -6.877098    -1.785803     0.193550
Zr    -8.359921    -0.000587    -2.531340
Zr   -10.431424    -1.789748    -0.226305
Zr   -10.431635     1.789385    -0.227185
 H    -8.677296     5.589923     0.203859
 H    -8.676589    -5.589858     0.206607
 H   -14.180167    -0.000577    -0.895842
 H    -5.258771     2.634650    -3.600554
 H   -11.125076     2.638221    -4.289236
 H    -5.258662    -2.636111    -3.599410
 H   -11.124751    -2.640641    -4.287925
 H    -6.497503    -2.949514     4.221230
 H    -6.497699     2.951766     4.219754
 H   -11.739416     2.954122     3.598040
 H   -11.739092    -2.952763     3.599463
