  152
scf done: -6850.050752
 H     4.681842     2.139350     0.398249
 H    -4.681846     2.139359     0.398354
 H    -4.681866    -2.139425     0.398254
 H    -2.196630     2.148448     0.413603
 H    -2.196652    -2.148538     0.413427
 C    -4.127477     1.209935     0.403627
 C    -4.127489    -1.210005     0.403555
 C    -2.741901     1.212793     0.411361
 C    -2.741913    -1.212877     0.411277
 O   -13.529746    -2.582799     1.635927
 O   -14.718005    -1.129863    -0.580207
 O   -12.606410     1.452567     3.361302
 O   -12.606422    -1.452713     3.361231
 O   -14.717995     1.129930    -0.580153
 O   -13.529725     2.582746     1.636053
 O    -8.006751     2.491362    -1.691841
 O    -6.911539     1.124349     0.387019
 O    -8.935393    -1.360412    -3.414266
 O    -8.935382     1.360575    -3.414198
 O    -6.911548    -1.124394     0.386955
 O    -8.006774    -2.491298    -1.691969
 O    -8.587319     2.582019     2.250803
 O    -9.696359     3.941144     0.171521
 O   -11.818061     1.360600    -3.769120
 O   -11.818073    -1.360401    -3.769187
 O    -9.696390    -3.941158     0.171317
 O    -8.587346    -2.582144     2.250673
 O   -13.132440    -2.492270    -2.320876
 O   -11.939549    -3.942381    -0.104347
 O    -9.907281    -1.453020     3.696380
 O    -9.907272     1.452837     3.696449
 O   -11.939518     3.942401    -0.104152
 O   -13.132419     2.492410    -2.320755
 H   -10.572499     2.783894    -1.984594
 H    -8.289055    -0.000066     2.256656
 H   -10.572523    -2.783794    -1.984732
 H   -13.819696    -0.000023     1.580025
 C    -8.108239    -2.160818    -2.903079
 C   -12.742154     2.163042    -3.471975
 C    -9.060381    -2.333707     3.391200
 C   -13.350819     2.334813     2.857859
 C   -12.742173    -2.162848    -3.472081
 C   -13.350839    -2.334928     2.857745
 C    -8.108220     2.160946    -2.902969
 C    -9.060361     2.333530     3.391315
 C   -10.824727    -4.494869     0.090545
 C    -6.323102    -0.000025     0.386634
 C   -15.260001     0.000039    -0.705487
 C   -10.824691     4.494868     0.090776
 C    -4.832040    -0.000032     0.399482
 C    -0.605491    -0.000051     0.418694
 C    -2.026107    -0.000046     0.414762
 O   -12.972636    -0.000016     1.126656
 O   -10.640689     1.999105    -1.434630
 O    -9.008037    -0.000044     1.619289
 O   -10.640706    -1.999029    -1.434730
 O    -9.230695     0.000017    -0.884712
 O   -10.942054    -1.468670     0.999996
 O   -12.145437     0.000039    -1.242794
 O   -10.942044     1.468629     1.000071
Zr   -12.588868    -1.789488    -0.250492
Zr   -11.125912    -0.000058     2.480856
Zr   -12.588852     1.789520    -0.250405
Zr    -9.036186     1.785324     0.188668
Zr   -10.505572     0.000065    -2.543896
Zr    -9.036200    -1.785344     0.188577
 H   -10.836648     5.590013     0.191189
 H   -16.334244     0.000049    -0.940948
 H   -10.836692    -5.590019     0.190896
 H    -7.399074     2.634871    -3.597256
 H   -13.261521     2.639886    -4.315943
 H   -13.919256     2.953621     3.567339
 H    -8.681911     2.950563     4.219313
 H   -13.919285    -2.953763     3.567194
 H    -8.681933    -2.950784     4.219165
 H   -13.261548    -2.639643    -4.316071
 H    -7.399104    -2.634722    -3.597393
 H     4.681869    -2.139435     0.398372
 H     2.196627     2.148434     0.413488
 H     2.196657    -2.148552     0.413555
 C     4.127475     1.209924     0.403569
 C     4.127492    -1.210015     0.403625
 C     2.741899     1.212779     0.411299
 C     2.741915    -1.212889     0.411351
 O    14.718005    -1.129855    -0.580216
 O    13.529751    -2.582802     1.635914
 O    12.606427    -1.452723     3.361224
 O    12.606409     1.452557     3.361307
 O    13.529722     2.582744     1.636062
 O    14.717993     1.129938    -0.580150
 O     6.911537     1.124343     0.387026
 O     8.006746     2.491363    -1.691829
 O     8.935377     1.360586    -3.414192
 O     8.935393    -1.360400    -3.414269
 O     8.006778    -2.491296    -1.691977
 O     6.911550    -1.124400     0.386953
 O     9.696355     3.941142     0.171535
 O     8.587318     2.582008     2.250814
 O    11.818073    -1.360385    -3.769192
 O    11.818057     1.360616    -3.769116
 O     8.587351    -2.582154     2.250665
 O     9.696394    -3.941160     0.171303
 O    11.939553    -3.942379    -0.104362
 O    13.132441    -2.492260    -2.320886
 O     9.907272     1.452821     3.696455
 O     9.907286    -1.453035     3.696376
 O    13.132415     2.492421    -2.320747
 O    11.939514     3.942404    -0.104138
 H     8.289057    -0.000076     2.256658
 H    10.572495     2.783902    -1.984583
 H    10.572523    -2.783786    -1.984742
 H    13.819697    -0.000024     1.580023
 C    12.742174    -2.162833    -3.472090
 C     8.108213     2.160952    -2.902958
 C    13.350845    -2.334935     2.857734
 C     9.060360     2.333515     3.391325
 C     8.108241    -2.160811    -2.903086
 C     9.060386    -2.333722     3.391192
 C    12.742149     2.163057    -3.471969
 C    13.350817     2.334806     2.857867
 C    10.824732    -4.494869     0.090528
 C    15.260000     0.000048    -0.705490
 C     6.323102    -0.000032     0.386637
 C    10.824687     4.494868     0.090791
 C     4.832040    -0.000041     0.399488
 C     0.605491    -0.000072     0.418710
 C     2.026107    -0.000060     0.414772
 O    12.972637    -0.000017     1.126654
 O     9.008037    -0.000053     1.619290
 O    10.640687     1.999110    -1.434622
 O    10.640707    -1.999024    -1.434737
 O     9.230694     0.000020    -0.884711
 O    12.145436     0.000045    -1.242795
 O    10.942057    -1.468673     0.999990
 O    10.942043     1.468625     1.000076
Zr    12.588870    -1.789485    -0.250501
Zr    11.125913    -0.000067     2.480855
Zr    12.588850     1.789524    -0.250399
Zr     9.036183     1.785322     0.188675
Zr    10.505571     0.000075    -2.543896
Zr     9.036202    -1.785346     0.188572
 H    10.836642     5.590012     0.191209
 H    10.836699    -5.590019     0.190875
 H    16.334244     0.000061    -0.940953
 H    13.919292    -2.953771     3.567180
 H    13.261549    -2.639625    -4.316082
 H     8.681909     2.950543     4.219325
 H     7.399065     2.634879    -3.597242
 H     7.399107    -2.634713    -3.597401
 H     8.681939    -2.950802     4.219156
 H    13.919252     2.953613     3.567349
 H    13.261515     2.639905    -4.315935
