  154
scf done: -6926.227673
 H     5.965864     2.139216     0.413615
 H    -5.965880     2.139261     0.413649
 H    -5.965950    -2.139674     0.413241
 H    -3.479954     2.149103     0.435654
 H    -3.480026    -2.149595     0.435345
 C    -5.411139     1.210087     0.420396
 C    -5.411183    -1.210517     0.420193
 C    -4.025770     1.213868     0.431912
 C    -4.025814    -1.214343     0.431735
 O   -14.818434    -2.582998     1.619133
 O   -15.998466    -1.129641    -0.601227
 O   -13.901271     1.451896     3.348703
 O   -13.901338    -1.453359     3.348014
 O   -15.998423     1.130106    -0.600687
 O   -14.818332     2.582374     1.620350
 O    -9.282698     2.491297    -1.686340
 O    -8.194427     1.124302     0.395745
 O   -10.204995    -1.359750    -3.413259
 O   -10.204939     1.361318    -3.412619
 O    -8.194478    -1.124607     0.395216
 O    -9.282805    -2.490602    -1.687523
 O    -9.877848     2.581282     2.253233
 O   -10.979893     3.940979     0.170527
 O   -13.086312     1.361365    -3.778606
 O   -13.086363    -1.359520    -3.779247
 O   -10.980051    -3.941085     0.168660
 O    -9.877964    -2.582403     2.252020
 O   -14.406386    -2.491528    -2.336248
 O   -13.222087    -3.942266    -0.115553
 O   -11.203402    -1.453827     3.693070
 O   -11.203339     1.452085     3.693749
 O   -13.221926     3.942394    -0.113701
 O   -14.406291     2.492744    -2.335075
 H   -11.847668     2.784301    -1.989241
 H    -9.580351    -0.000570     2.260360
 H   -11.847771    -2.783350    -1.990551
 H   -15.108164    -0.000283     1.562717
 C    -9.379740    -2.160142    -2.899078
 C   -14.011609     2.163697    -3.484886
 C   -10.355337    -2.334395     3.390898
 C   -14.643863     2.334274     2.842757
 C   -14.011691    -2.161956    -3.485904
 C   -14.643963    -2.335473     2.841656
 C    -9.379647     2.161422    -2.898054
 C   -10.355237     2.332759     3.391993
 C   -12.108064    -4.494864     0.083459
 C    -7.606953    -0.000167     0.396959
 C   -16.540038     0.000273    -0.728265
 C   -12.107881     4.494849     0.085581
 C    -6.115102    -0.000202     0.414228
 C    -1.893319    -0.000310     0.444820
 C    -3.310722    -0.000246     0.437190
 O   -14.259454    -0.000198     1.112428
 O   -11.917911     1.999428    -1.439640
 O   -10.296389    -0.000404     1.619696
 O   -11.917984    -1.998733    -1.440581
 O   -10.509704     0.000190    -0.884783
 O   -12.228473    -1.468866     0.993063
 O   -13.423271     0.000332    -1.253823
 O   -12.228415     1.468437     0.993759
Zr   -13.870806    -1.789410    -0.263705
Zr   -12.417815    -0.000560     2.473595
Zr   -13.870736     1.789632    -0.262863
Zr   -10.319947     1.785451     0.189604
Zr   -11.778602     0.000607    -2.548840
Zr   -10.320022    -1.785586     0.188762
 H   -12.120138     5.589954     0.186152
 H   -17.613392     0.000351    -0.967673
 H   -12.120369    -5.590017     0.183508
 H    -8.667862     2.635601    -3.589437
 H   -14.527732     2.640703    -4.330730
 H   -15.214819     2.952959     3.550295
 H    -9.979848     2.949687     4.221435
 H   -15.214946    -2.954465     3.548903
 H    -9.979974    -2.951729     4.220048
 H   -14.527832    -2.638544    -4.331972
 H    -8.667981    -2.634023    -3.590690
 H     5.965953    -2.139719     0.413130
 H     3.479940     2.149046     0.435609
 H     3.480032    -2.149653     0.435216
 C     5.411128     1.210039     0.420344
 C     5.411183    -1.210565     0.420097
 C     4.025760     1.213813     0.431852
 C     4.025813    -1.214398     0.431629
 C     0.677379    -0.000276     0.447495
 C    -0.677393    -0.000358     0.447481
 O    15.998483    -1.129606    -0.601178
 O    14.818433    -2.582980     1.619162
 O    13.901307    -1.453354     3.348035
 O    13.901217     1.451900     3.348732
 O    14.818292     2.582391     1.620395
 O    15.998422     1.130141    -0.600633
 O     8.194413     1.124270     0.395706
 O     9.282699     2.491282    -1.686365
 O    10.204973     1.361316    -3.412636
 O    10.205049    -1.359752    -3.413286
 O     9.282845    -2.490616    -1.687565
 O     8.194482    -1.124640     0.395162
 O    10.979861     3.940972     0.170527
 O     9.877799     2.581260     2.253217
 O    13.086422    -1.359500    -3.779235
 O    13.086349     1.361386    -3.778588
 O     9.877955    -2.582426     2.251985
 O    10.980080    -3.941093     0.168635
 O    13.222120    -3.942256    -0.115548
 O    14.406436    -2.491502    -2.336223
 O    11.203281     1.452066     3.693744
 O    11.203367    -1.453846     3.693057
 O    14.406301     2.492770    -2.335036
 O    13.221897     3.942404    -0.113674
 H     9.580322    -0.000597     2.260329
 H    11.847670     2.784307    -1.989233
 H    11.847817    -2.783344    -1.990561
 H    15.108144    -0.000264     1.562758
 C    14.011752    -2.161929    -3.485883
 C     9.379667     2.161411    -2.898080
 C    14.643945    -2.335461     2.841684
 C    10.355175     2.332735     3.391981
 C     9.379793    -2.160152    -2.899117
 C    10.355312    -2.334419     3.390870
 C    14.011636     2.163725    -3.484854
 C    14.643809     2.334285     2.842799
 C    12.108098    -4.494863     0.083448
 C    16.540048     0.000313    -0.728207
 C     7.606948    -0.000203     0.396901
 C    12.107845     4.494850     0.085597
 C     6.115097    -0.000246     0.414158
 C     1.893314    -0.000370     0.444723
 C     3.310716    -0.000304     0.437099
 O    14.259441    -0.000183     1.112457
 O    10.296369    -0.000422     1.619675
 O    11.917913     1.999433    -1.439633
 O    11.918018    -1.998729    -1.440587
 O    10.509715     0.000182    -0.884800
 O    13.423287     0.000347    -1.253804
 O    12.228472    -1.468868     0.993062
 O    12.228391     1.468436     0.993767
Zr    13.870824    -1.789394    -0.263686
Zr    12.417783    -0.000564     2.473601
Zr    13.870724     1.789648    -0.262833
Zr    10.319931     1.785439     0.189590
Zr    11.778635     0.000615    -2.548842
Zr    10.320034    -1.785599     0.188735
 H    12.120093     5.589955     0.186172
 H    12.120410    -5.590016     0.183493
 H    17.613405     0.000400    -0.967601
 H    15.214924    -2.954450     3.548936
 H    14.527908    -2.638511    -4.331945
 H     9.979771     2.949655     4.221422
 H     8.667887     2.635586    -3.589470
 H     8.668047    -2.634037    -3.590740
 H     9.979941    -2.951758     4.220015
 H    15.214751     2.952972     3.550346
 H    14.527766     2.640737    -4.330688
