%chk=gaussian.chk
%nproc=24
%mem=62GB
#p opt b3lyp/gen int=grid=ultrafine pseudo=read scf=(tight,maxcycle=5000)

Title Card Required

0 1
Zr    -1      1.353460     2.425118    -0.765482
Zr    -1      1.348365    -2.570457    -0.767445
Zr    -1     -0.415390    -0.071922     0.999464
Zr    -1     -0.414685    -0.070717    -2.533009
Zr    -1      3.117002    -0.074951     0.999992
Zr    -1      3.117563    -0.073841    -2.532121
 O    -1      1.350238    -1.480049    -2.757058
 O    -1     -1.126551     1.888008     1.798525
 O    -1     -0.084021    -3.636944    -2.109159
 O    -1     -2.555601    -0.133461    -1.903547
 O    -1     -2.556029    -0.138626     0.365272
 O    -1      5.259176    -0.134762    -1.901945
 O    -1      5.259506    -0.140224     0.366978
 O    -1     -1.121527     1.891438    -3.332057
 O    -1      0.015817     3.495770    -2.200531
 O    -1      3.343517     1.333256    -0.765472
 O    -1      3.918060    -2.035476    -3.239768
 O    -1      3.825117     1.884926     1.805082
 O    -1      2.698352     3.489727     0.663388
 O    -1      1.349312    -1.480293     1.223917
 O    -1      2.777527    -3.638797     0.575313
 O    -1      1.351600     0.963822     0.700472
 O    -1     -1.215327    -2.031894    -3.245514
 O    -1      0.218612    -0.007076    -4.673437
 O    -1     -0.084399    -3.636120     0.573185
 O    -1     -0.117525    -1.109272    -0.767144
 O    -1      1.352205     0.965168    -2.232616
 O    -1      2.778860    -3.639690    -2.110016
 O    -1      3.914838    -2.035953     1.709074
 O    -1     -0.638979     1.337380    -0.766384
 O    -1      0.016651     3.491455     0.671421
 O    -1      3.822275     1.887982    -3.336639
 O    -1      0.217086    -0.007000     3.141375
 O    -1      2.485935    -0.015766     3.141716
 O    -1     -1.213980    -2.032318     1.713188
 O    -1      2.817220    -1.111725    -0.766482
 O    -1      2.487472    -0.016384    -4.673884
 O    -1      2.700535     3.493691    -2.191537
 C    -1     -1.522459     4.158150    -3.871359
 C    -1     -0.817993     3.104260    -3.082101
 C    -1     -2.500004     3.794750    -4.807766
 C    -1     -2.918207     6.129483    -5.271468
 C    -1     -1.922728     6.492401    -4.353884
 C    -1     -1.228476     5.511650    -3.657023
 C    -1     -3.194544     4.775368    -5.504129
 C    -1     -3.397543    -4.920372     3.769976
 C    -1     -1.502877    -5.653927     1.848721
 C    -1     -1.503313    -5.653873    -3.386713
 C    -1     -5.329296    -0.235206     0.444065
 C    -1      9.422945    -0.235206     0.444065
 C    -1     -6.718138    -0.235725     0.444680
 C    -1      8.034105    -0.235725     0.444680
 C    -1     -4.628678    -0.221145    -0.769576
 C    -1     10.123565    -0.221145    -0.769576
 C    -1     -3.136656    -0.168621    -0.769270
 C    -1     -6.719046    -0.230083    -1.982270
 C    -1      8.033197    -0.230083    -1.982270
 C    -1     -5.330160    -0.229645    -1.982843
 C    -1      9.422084    -0.229645    -1.982843
 C    -1     -7.419751    -0.221988    -0.768461
 C    -1      7.332491    -0.221988    -0.768461
 C    -1      5.840234    -0.169895    -0.767580
 C    -1      4.439033    -4.303642    -3.657758
 C    -1      5.848440     4.777657     4.018787
 C    -1      5.636976     6.129006    -5.255127
 C    -1     -1.233641     5.508320     2.115574
 C    -1      1.353000     0.018456    -5.254601
 C    -1     -0.821659     3.100598     1.548775
 C    -1      4.187427    -5.657531    -3.397471
 C    -1     -1.744253    -4.300346     2.120241
 C    -1      2.566230     0.064141    -7.448144
 C    -1      2.566093     0.064129     7.304247
 C    -1     -2.510489     3.794674     3.265995
 C    -1      5.639925     6.129555     3.713850
 C    -1      5.404567    -3.941318    -4.606857
 C    -1      5.833425    -6.277191    -5.055227
 C    -1      1.352024     0.065930    -9.537643
 C    -1      1.351888     0.065918     5.214748
 C    -1      0.138897     0.087025    -8.836288
 C    -1      0.138761     0.087014     5.916103
 C    -1     -2.198351    -6.636249     2.541754
 C    -1      0.139320     0.086987    -7.447429
 C    -1      0.139183     0.086975     7.304962
 C    -1      4.717275     6.489823     2.722462
 C    -1      4.875286    -6.640255     2.558060
 C    -1     -0.962191    -3.245037     1.410932
 C    -1      5.832729    -6.278415     3.515434
 C    -1      4.019394     5.509678    -3.569840
 C    -1      3.531301     3.097977     1.545425
 C    -1      2.565796     0.064080    -8.836943
 C    -1      2.565660     0.064068     5.915449
 C    -1     -1.745659    -4.299919    -3.655543
 C    -1     -3.141741    -6.274029     3.512886
 C    -1     -3.399775    -4.919147    -5.305503
 C    -1     -0.963015    -3.245018    -2.945409
 C    -1     -1.529452     4.155674     2.332571
 C    -1      5.150156     3.794525    -4.861732
 C    -1     -2.198433    -6.635662    -4.081013
 C    -1      3.660049    -3.248440    -2.944243
 C    -1     -2.704747    -3.937404    -4.611106
 C    -1     -3.142741    -6.273239    -5.051190
 C    -1      4.881317    -6.639465    -4.092676
 C    -1     -3.205040     4.777405     3.959057
 C    -1      4.180799    -5.657646     1.864614
 C    -1      4.241443     4.156258    -3.857860
 C    -1      5.408516    -3.942417     3.065367
 C    -1      5.844526     4.776242    -5.557064
 C    -1      6.102928    -4.925022     3.758791
 C    -1     -1.928324     6.491181     2.808683
 C    -1      1.351467     0.018708     3.722462
 C    -1     -2.702206    -3.938163     3.076950
 C    -1      4.022787     5.506600     2.030237
 C    -1      3.657867    -3.248424     1.410726
 C    -1      3.530090     3.101300    -3.076648
 C    -1      6.098324    -4.923271    -5.302183
 C    -1      5.154035     3.794247     3.326229
 C    -1     -2.925188     6.130558     3.725487
 C    -1      4.713550     6.491207    -4.265062
 C    -1      4.244505     4.154030     2.322567
 C    -1      1.352892     0.065861    -6.746770
 C    -1      1.352756     0.065850     8.005621
 C    -1      4.437357    -4.304165     2.121935
 H    -1     -2.707512     2.737381    -4.965942
 H    -1     -1.715851     7.549877    -4.195054
 H    -1     -0.458273     5.773247    -2.932681
 H    -1     -3.965903     4.513787    -6.227195
 H    -1      5.302889     2.737477    -5.075262
 H    -1      6.560745     4.515892    -6.335257
 H    -1     -0.461392     5.767174     1.392483
 H    -1      5.589348    -2.883709    -4.790054
 H    -1     -2.882475    -2.879719    -4.800657
 H    -1     -4.764861    -0.235946     1.375521
 H    -1      9.987381    -0.235946     1.375521
 H    -1     -7.281473    -0.236862     1.376787
 H    -1      7.470768    -0.236862     1.376787
 H    -1     -7.283105    -0.226909    -2.913959
 H    -1      7.469141    -0.226909    -2.913959
 H    -1     -4.766754    -0.226074    -2.914939
 H    -1      9.985492    -0.226074    -2.914939
 H    -1      6.846279    -4.662800    -6.049811
 H    -1     -0.793047     0.094887    -9.399854
 H    -1     -0.793183     0.094876     5.352537
 H    -1     -4.142021    -4.658214    -6.058659
 H    -1      3.437307    -5.917946    -2.651997
 H    -1     -2.720146     2.737828     3.424822
 H    -1     -4.139153    -4.660644     4.524145
 H    -1      1.349735    -2.038284    -3.546676
 H    -1      6.565130     4.519856     4.797367
 H    -1      5.306923     2.737686     3.542015
 H    -1      6.855489    -4.665939     4.502243
 H    -1     -2.019585    -7.693763     2.352285
 H    -1     -3.978611     4.518688     4.680733
 H    -1      3.308506     5.764279     1.249481
 H    -1      4.684723    -7.697658     2.379888
 H    -1      3.497320     0.053543    -9.401152
 H    -1      3.497184     0.053532     5.351240
 H    -1      3.305217     5.769699    -2.789752
 H    -1      3.498110     0.053623    -6.884478
 H    -1      3.497974     0.053612     7.867914
 H    -1      4.563074     7.548115    -4.049588
 H    -1      4.694492    -7.697075    -3.911700
 H    -1     -1.720143     7.548165     2.648205
 H    -1      3.426357    -5.916816     1.123075
 H    -1     -0.759358    -5.913944     1.096504
 H    -1      4.567243     7.546212     2.504089
 H    -1     -2.018523    -7.693306    -3.893391
 H    -1     -2.879019    -2.880642     3.268022
 H    -1      5.597074    -2.885002     3.245590
 H    -1      1.348375    -2.038475     2.013601
 H    -1     -0.758915    -5.914886    -2.635696
 H    -1     -0.792246     0.094811    -6.883246
 H    -1     -0.792382     0.094799     7.869144
 H    -1     -1.428322     1.896065    -0.766736
 H    -1      4.133115     1.891533    -0.765368
 H     0     10.854564    -0.318942    -0.879464
 H     0     -8.137104    -0.312008    -0.752062
 H     0      1.390599     0.077574   -10.334451
 H     0      1.361989     0.061103     8.859568
 H     0      6.065049     6.713185    -5.607662
 H     0     -3.568775    -6.737202     3.866572
 H     0      6.323525    -6.867046    -5.518581
 H     0     -3.271122     6.747377     4.106752
 H     0     -3.423596     6.731091    -5.645224
 H     0      6.453564    -6.905752     3.871995
 H     0     -3.609133    -6.838172    -5.549067
 H     0      6.039309     6.689073     4.139101

H C O 0
6-31g(d)
****
Zr 0
LanL2DZ
****

Zr 0
LanL2DZ ecp












