%chk=gaussian.chk
%nproc=24
%mem=62GB
#p opt b3lyp/gen int=grid=ultrafine pseudo=read scf=(tight,maxcycle=5000)

Title Card Required

0 1
Zr    -1      1.119227     2.054334     0.287409
Zr    -1     -0.365858    -0.675211    -1.794836
Zr    -1      1.191973    -2.742960     0.230030
Zr    -1     -0.495441    -0.206526     1.914461
Zr    -1      2.891594    -0.365138    -1.480248
Zr    -1      3.106140    -0.437697     1.983128
 O    -1      3.702269     1.613817     2.763737
 O    -1      3.265990     1.038370     0.201565
 O    -1     -2.474694    -0.557875    -1.119715
 O    -1     -2.560750    -0.260161     1.122879
 O    -1      5.067473    -0.627318    -1.057747
 O    -1      5.194365    -0.482016     1.209965
 O    -1      2.672888    -3.980265     1.348865
 O    -1      3.782878    -2.459475     2.627777
 O    -1      1.400992     0.482671     1.568718
 O    -1      3.490044     1.619325    -2.375633
 O    -1      2.856723    -1.507861     0.247946
 O    -1      2.420188     3.224470    -1.178742
 O    -1     -0.362540    -3.771315     1.504078
 O    -1      2.273227     3.105283     1.810167
 O    -1      2.669526    -0.594073    -3.669252
 O    -1     -1.111269    -2.676560    -2.309225
 O    -1     -0.266790     2.947897    -1.188307
 O    -1     -1.419501    -2.147286     2.686855
 O    -1     -0.642881     1.665853     1.183971
 O    -1      0.415486    -0.543452    -3.844091
 O    -1     -1.151817     1.290704    -2.451561
 O    -1      1.419910    -1.878039    -1.692272
 O    -1     -0.241377    -1.295611     0.174671
 O    -1      1.242333    -1.794115     2.238672
 O    -1      2.354097    -0.281477     4.123518
 O    -1      0.110456     0.072382     3.990660
 O    -1      0.129587    -4.141589    -1.114431
 O    -1      1.131754     0.625375    -1.207701
 C    -1     -4.588873    -0.530638    -0.033087
 C    -1      9.994967    -0.530638    -0.033087
 C    -1     -3.096457    -0.445322    -0.011284
 C    -1     -5.301130    -0.594126    -1.237757
 C    -1      9.282711    -0.594126    -1.237757
 C    -1     -7.380215    -0.615511    -0.001680
 C    -1      7.203627    -0.615511    -0.001680
 C    -1     -6.663177    -0.575446     1.202812
 C    -1      7.920666    -0.575446     1.202812
 C    -1      5.714283    -0.586077     0.049463
 C    -1     -5.278549    -0.531146     1.186600
 C    -1      9.305292    -0.531146     1.186600
 C    -1     -6.692425    -0.632964    -1.222893
 C    -1      7.891417    -0.632964    -1.222893
 C    -1      5.589237    -6.723545     4.399509
 C    -1      4.662402    -7.077422     3.410347
 C    -1      4.270676    -4.735934     2.946924
 C    -1      5.218119    -4.386057     3.919853
 C    -1      3.529183    -3.649918     2.245607
 C    -1      5.870092    -5.372437     4.641895
 C    -1      4.002424    -6.087180     2.688391
 C    -1      3.691411     5.242788    -2.618813
 C    -1      5.560558     4.495588    -4.557896
 C    -1      5.531040     4.688116     4.927978
 C    -1     -1.043785    -6.311099    -2.428776
 C    -1      0.528705    -0.662936    -6.609179
 C    -1     -0.230000     0.063169     8.129291
 C    -1      1.692422    -0.686095    -5.828082
 C    -1      0.933718     0.040010     8.910391
 C    -1     -1.994891    -4.410487     3.089603
 C    -1      0.620984    -0.692412    -7.993940
 C    -1     -0.137721     0.033697     6.744532
 C    -1     -0.735045    -3.858204    -2.007864
 C    -1      3.250216     2.786825     2.580069
 C    -1      5.333151     5.851469    -4.285904
 C    -1     -1.386636    -4.985991    -2.730127
 C    -1      1.209750    -0.078974     4.636852
 C    -1      4.864117     3.518728    -3.857523
 C    -1     -2.367458    -4.718661    -3.695141
 C    -1     -2.614918     3.197710    -3.945170
 C    -1     -1.662903     3.550870    -2.980043
 C    -1     -3.633093    -5.019028     4.760570
 C    -1      5.183374     6.013116     4.631281
 C    -1      3.932541     3.886728    -2.877405
 C    -1      3.567484     5.232824     3.012955
 C    -1     -0.975060     2.517206    -2.147718
 C    -1      3.040659    -0.784384    -7.831604
 C    -1      2.281955    -0.058279     6.906868
 C    -1     -2.467317    -6.743132     3.515642
 C    -1      4.905718     3.640604     4.263491
 C    -1      4.199457     6.279981     3.669359
 C    -1      3.918543     3.907713     3.304584
 C    -1      1.876823    -0.754733    -8.612692
 C    -1      1.118118    -0.028624     6.125780
 C    -1     -3.274039     4.187875    -4.668015
 C    -1     -1.207807    -3.362061     2.370089
 C    -1     -3.395469    -6.375063     4.499166
 C    -1     -2.005979     5.886903    -3.487608
 C    -1      3.220767     2.834558    -2.088661
 C    -1     -1.771098    -5.766413     2.814974
 C    -1     -1.354184     4.900629    -2.764969
 C    -1      4.387870     6.219728    -3.319225
 C    -1     -3.000273    -5.765723    -4.350840
 C    -1     -1.669586    -7.358542    -3.092854
 C    -1      1.587533    -0.614840    -4.343948
 C    -1      2.949019    -0.744151    -6.445987
 C    -1      2.190313    -0.018046     8.292486
 C    -1     -2.936736    -4.042061     4.059736
 C    -1     -2.652831    -7.090937    -4.055687
 C    -1     -2.980287     5.538297    -4.434050
 H    -1     -4.748436    -0.598105    -2.176565
 H    -1      9.835405    -0.598105    -2.176565
 H    -1     -7.214066    -0.565398     2.141476
 H    -1      7.369778    -0.565398     2.141476
 H    -1     -4.705338    -0.487639     2.110981
 H    -1      9.878504    -0.487639     2.110981
 H    -1     -7.264004    -0.663195    -2.149937
 H    -1      7.319838    -0.663195    -2.149937
 H    -1      4.460474    -8.132899     3.231262
 H    -1      5.416683    -3.331894     4.103823
 H    -1      6.598814    -5.119862     5.410084
 H    -1      3.263560    -6.342734     1.929504
 H    -1     -2.301787    -7.802334     3.323210
 H    -1     -1.039382    -6.031592     2.052937
 H    -1      3.939362     7.315504     3.456125
 H    -1      1.206896    -2.418818     2.977013
 H    -1      2.797907     5.421087     2.266102
 H    -1      4.007449    -0.834711    -8.330346
 H    -1      3.248744    -0.108607     6.408127
 H    -1     -0.438300    -0.613200    -6.111420
 H    -1     -1.197004     0.112905     8.627050
 H    -1      2.959588     5.507810    -1.856861
 H    -1     -0.286325    -6.498362    -1.668804
 H    -1     -1.413564    -8.394816    -2.876991
 H    -1     -0.604896     5.152624    -2.016569
 H    -1      5.032398     2.459451    -4.047485
 H    -1     -3.767190    -5.577200    -5.100441
 H    -1     -2.838197     2.143213    -4.103416
 H    -1     -4.362297    -4.753697     5.524986
 H    -1     -0.271754    -0.669741    -8.616907
 H    -1     -1.030459     0.056364     6.121567
 H    -1     -3.100162    -2.982907     4.254444
 H    -1      3.841743    -0.753291    -5.822087
 H    -1      3.083037    -0.027182     8.916386
 H    -1     -4.033281     3.933294    -5.406807
 H    -1      6.295004     4.230695    -5.317368
 H    -1     -2.623971    -3.682927    -3.911573
 H    -1      5.165104     2.604497     4.476305
 H    -1      4.221958     7.278936    -3.126877
 H    -1     -1.786739     6.940336    -3.323717
 H    -1      6.291412     4.500921     5.685028
 H    -1      4.062467     1.579057     0.102066
 H     0      1.942947    -0.761232    -9.552864
 H     0     -8.252001    -0.794124    -0.039065
 H     0     10.957179    -0.697211    -0.074004
 H     0      0.901278     0.046005     9.645519
 H     0      5.807196     6.405412    -4.651751
 H     0     -3.851710    -7.032060     4.970030
 H     0     -3.415131     6.148248    -4.924855
 H     0      6.155771    -7.328549     4.681076
 H     0     -2.944195    -7.728420    -4.459764
 H     0      5.385868     6.793773     5.014589

H C O 0
6-31g(d)
****
Zr 0
LanL2DZ
****

Zr 0
LanL2DZ ecp












